ELEMENTS
C H N O
END
SPECIES
O2 N2 NH3 C7H16
!CH4 CO2 H2O
END