/*--------------------------------*- C++ -*----------------------------------*\
| =========                 |                                                 |
| \\      /  F ield         | OpenFOAM: The Open Source CFD Toolbox           |
|  \\    /   O peration     | Version:  2.3.0                                 |
|   \\  /    A nd           | Web:      www.OpenFOAM.org                      |
|    \\/     M anipulation  |                                                 |
\*---------------------------------------------------------------------------*/
FoamFile
{
    version     2.0;
    format      ascii;
    class       dictionary;
    object      blockMeshDict;
}
// * * * * * * * * * * * * * * * * * * * * * * * * * * * * * * * * * * * * * //

convertToMeters 0.005;

vertices
(
    (0 0 0)
    (1 0 0)
    (1 0.1 0)
    (0 0.1 0)
    (0 0 0.1)
    (1 0 0.1)
    (1 0.1 0.1)
    (0 0.1 0.1)
);

blocks
(
    hex (0 1 2 3 4 5 6 7) (500 1 1) simpleGrading (1 1 1)
);

edges
(
);

boundary
(
    inlet
    {
        type patch;
        faces
        (
            (0 4 7 3)
        );
    }
    outlet
    {
        type patch;
        faces
        (
            (2 6 5 1)
        );
    }
    wall
    {
        type empty;
        faces
        (
            (0 1 5 4)
            (3 2 6 7)
            (4 7 6 5)
            (0 1 2 3)
        );
    }

);

mergePatchPairs
(
);

// ************************************************************************* //
