/*---------------------------------------------------------------------------*\
| =========                 |                                                 |
| \\      /  F ield         | OpenFOAM: The Open Source CFD Toolbox           |
|  \\    /   O peration     | Version:  1.0                                   |
|   \\  /    A nd           | Web:      http://www.openfoam.org               |
|    \\/     M anipulation  |                                                 |
\*---------------------------------------------------------------------------*/
FoamFile
{
version                         2.0;
format                          ascii;
class                           dictionary;
object                          binaryDiff;
}
H-H		
{		
Diff1	-1.52E+01	;
Diff2	4.38E+00	;
Diff3	-3.56E-01	;
Diff4	1.55E-02	;
}		
H2-H		
{		
Diff1	-1.20E+01	;
Diff2	3.03E+00	;
Diff3	-1.86E-01	;
Diff4	8.36E-03	;
}		
H2-H2		
{		
Diff1	-1.03E+01	;
Diff2	2.19E+00	;
Diff3	-7.54E-02	;
Diff4	3.51E-03	;
}		
O-H		
{		
Diff1	-1.53E+01	;
Diff2	4.27E+00	;
Diff3	-3.48E-01	;
Diff4	1.55E-02	;
}		
O-H2		
{		
Diff1	-1.09E+01	;
Diff2	2.31E+00	;
Diff3	-8.74E-02	;
Diff4	3.90E-03	;
}		
O-O		
{		
Diff1	-1.36E+01	;
Diff2	3.06E+00	;
Diff3	-1.89E-01	;
Diff4	8.45E-03	;
}		
O2-H		
{		
Diff1	-1.76E+01	;
Diff2	5.05E+00	;
Diff3	-4.49E-01	;
Diff4	1.98E-02	;
}		
O2-H2		
{		
Diff1	-1.27E+01	;
Diff2	2.93E+00	;
Diff3	-1.74E-01	;
Diff4	7.90E-03	;
}		
O2-O		
{		
Diff1	-1.51E+01	;
Diff2	3.52E+00	;
Diff3	-2.49E-01	;
Diff4	1.11E-02	;
}		
O2-O2		
{		
Diff1	-1.61E+01	;
Diff2	3.69E+00	;
Diff3	-2.69E-01	;
Diff4	1.19E-02	;
}		
OH-H		
{		
Diff1	-1.53E+01	;
Diff2	4.28E+00	;
Diff3	-3.49E-01	;
Diff4	1.55E-02	;
}		
OH-H2		
{		
Diff1	-1.09E+01	;
Diff2	2.31E+00	;
Diff3	-8.74E-02	;
Diff4	3.90E-03	;
}		
OH-O		
{		
Diff1	-1.36E+01	;
Diff2	3.06E+00	;
Diff3	-1.89E-01	;
Diff4	8.46E-03	;
}		
OH-O2		
{		
Diff1	-1.51E+01	;
Diff2	3.50E+00	;
Diff3	-2.47E-01	;
Diff4	1.10E-02	;
}		
OH-OH		
{		
Diff1	-1.36E+01	;
Diff2	3.06E+00	;
Diff3	-1.89E-01	;
Diff4	8.45E-03	;
}		
H2O-H		
{		
Diff1	-1.65E+01	;
Diff2	4.22E+00	;
Diff3	-2.83E-01	;
Diff4	1.02E-02	;
}		
H2O-H2		
{		
Diff1	-1.82E+01	;
Diff2	5.04E+00	;
Diff3	-4.38E-01	;
Diff4	1.89E-02	;
}		
H2O-O		
{		
Diff1	-1.91E+01	;
Diff2	4.99E+00	;
Diff3	-4.19E-01	;
Diff4	1.76E-02	;
}		
H2O-O2		
{		
Diff1	-2.03E+01	;
Diff2	5.17E+00	;
Diff3	-4.26E-01	;
Diff4	1.73E-02	;
}		
H2O-OH		
{		
Diff1	-1.91E+01	;
Diff2	4.99E+00	;
Diff3	-4.19E-01	;
Diff4	1.76E-02	;
}		
H2O-H2O		
{		
Diff1	-1.18E+01	;
Diff2	8.89E-01	;
Diff3	2.46E-01	;
Diff4	-1.61E-02	;
}		
CO-H		
{		
Diff1	-1.72E+01	;
Diff2	4.86E+00	;
Diff3	-4.24E-01	;
Diff4	1.87E-02	;
}		
CO-H2		
{		
Diff1	-1.27E+01	;
Diff2	2.90E+00	;
Diff3	-1.71E-01	;
Diff4	7.77E-03	;
}		
CO-O		
{		
Diff1	-1.48E+01	;
Diff2	3.37E+00	;
Diff3	-2.30E-01	;
Diff4	1.03E-02	;
}		
CO-O2		
{		
Diff1	-1.58E+01	;
Diff2	3.60E+00	;
Diff3	-2.58E-01	;
Diff4	1.14E-02	;
}		
CO-OH		
{		
Diff1	-1.48E+01	;
Diff2	3.36E+00	;
Diff3	-2.28E-01	;
Diff4	1.02E-02	;
}		
CO-H2O		
{		
Diff1	-2.03E+01	;
Diff2	5.19E+00	;
Diff3	-4.31E-01	;
Diff4	1.76E-02	;
}		
CO-CO		
{		
Diff1	-1.55E+01	;
Diff2	3.47E+00	;
Diff3	-2.42E-01	;
Diff4	1.07E-02	;
}		
HCO-H		
{		
Diff1	-1.54E+01	;
Diff2	3.57E+00	;
Diff3	-1.88E-01	;
Diff4	5.59E-03	;
}		
HCO-H2		
{		
Diff1	-1.75E+01	;
Diff2	4.67E+00	;
Diff3	-3.93E-01	;
Diff4	1.71E-02	;
}		
HCO-O		
{		
Diff1	-1.92E+01	;
Diff2	4.87E+00	;
Diff3	-4.05E-01	;
Diff4	1.70E-02	;
}		
HCO-O2		
{		
Diff1	-2.03E+01	;
Diff2	5.11E+00	;
Diff3	-4.32E-01	;
Diff4	1.80E-02	;
}		
HCO-OH		
{		
Diff1	-1.92E+01	;
Diff2	4.88E+00	;
Diff3	-4.06E-01	;
Diff4	1.71E-02	;
}		
HCO-H2O		
{		
Diff1	-1.76E+01	;
Diff2	3.51E+00	;
Diff3	-1.50E-01	;
Diff4	2.97E-03	;
}		
HCO-CO		
{		
Diff1	-2.01E+01	;
Diff2	5.04E+00	;
Diff3	-4.24E-01	;
Diff4	1.78E-02	;
}		
HCO-HCO		
{		
Diff1	-1.89E+01	;
Diff2	3.92E+00	;
Diff3	-2.12E-01	;
Diff4	5.94E-03	;
}		
CO2-H		
{		
Diff1	-1.73E+01	;
Diff2	4.57E+00	;
Diff3	-3.51E-01	;
Diff4	1.40E-02	;
}		
CO2-H2		
{		
Diff1	-1.56E+01	;
Diff2	4.03E+00	;
Diff3	-3.18E-01	;
Diff4	1.42E-02	;
}		
CO2-O		
{		
Diff1	-1.79E+01	;
Diff2	4.49E+00	;
Diff3	-3.70E-01	;
Diff4	1.61E-02	;
}		
CO2-O2		
{		
Diff1	-1.87E+01	;
Diff2	4.57E+00	;
Diff3	-3.75E-01	;
Diff4	1.62E-02	;
}		
CO2-OH		
{		
Diff1	-1.79E+01	;
Diff2	4.48E+00	;
Diff3	-3.68E-01	;
Diff4	1.60E-02	;
}		
CO2-H2O		
{		
Diff1	-1.92E+01	;
Diff2	4.36E+00	;
Diff3	-2.84E-01	;
Diff4	9.65E-03	;
}		
CO2-CO		
{		
Diff1	-1.85E+01	;
Diff2	4.52E+00	;
Diff3	-3.71E-01	;
Diff4	1.60E-02	;
}		
CO2-HCO		
{		
Diff1	-2.10E+01	;
Diff2	5.06E+00	;
Diff3	-3.96E-01	;
Diff4	1.53E-02	;
}		
CO2-CO2		
{		
Diff1	-2.07E+01	;
Diff2	5.13E+00	;
Diff3	-4.30E-01	;
Diff4	1.78E-02	;
}		
CH3-H		
{		
Diff1	-1.80E+01	;
Diff2	5.09E+00	;
Diff3	-4.46E-01	;
Diff4	1.93E-02	;
}		
CH3-H2		
{		
Diff1	-1.36E+01	;
Diff2	3.24E+00	;
Diff3	-2.15E-01	;
Diff4	9.72E-03	;
}		
CH3-O		
{		
Diff1	-1.56E+01	;
Diff2	3.70E+00	;
Diff3	-2.71E-01	;
Diff4	1.20E-02	;
}		
CH3-O2		
{		
Diff1	-1.71E+01	;
Diff2	4.12E+00	;
Diff3	-3.24E-01	;
Diff4	1.42E-02	;
}		
CH3-OH		
{		
Diff1	-1.56E+01	;
Diff2	3.70E+00	;
Diff3	-2.71E-01	;
Diff4	1.19E-02	;
}		
CH3-H2O		
{		
Diff1	-2.04E+01	;
Diff2	5.22E+00	;
Diff3	-4.32E-01	;
Diff4	1.75E-02	;
}		
CH3-CO		
{		
Diff1	-1.66E+01	;
Diff2	3.93E+00	;
Diff3	-2.99E-01	;
Diff4	1.31E-02	;
}		
CH3-HCO		
{		
Diff1	-2.05E+01	;
Diff2	5.12E+00	;
Diff3	-4.21E-01	;
Diff4	1.71E-02	;
}		
CH3-CO2		
{		
Diff1	-1.92E+01	;
Diff2	4.77E+00	;
Diff3	-3.94E-01	;
Diff4	1.67E-02	;
}		
CH3-CH3		
{		
Diff1	-1.77E+01	;
Diff2	4.37E+00	;
Diff3	-3.54E-01	;
Diff4	1.54E-02	;
}		
CH4-H		
{		
Diff1	-1.79E+01	;
Diff2	5.05E+00	;
Diff3	-4.41E-01	;
Diff4	1.91E-02	;
}		
CH4-H2		
{		
Diff1	-1.35E+01	;
Diff2	3.23E+00	;
Diff3	-2.13E-01	;
Diff4	9.64E-03	;
}		
CH4-O		
{		
Diff1	-1.56E+01	;
Diff2	3.68E+00	;
Diff3	-2.69E-01	;
Diff4	1.19E-02	;
}		
CH4-O2		
{		
Diff1	-1.70E+01	;
Diff2	4.07E+00	;
Diff3	-3.18E-01	;
Diff4	1.40E-02	;
}		
CH4-OH		
{		
Diff1	-1.56E+01	;
Diff2	3.68E+00	;
Diff3	-2.68E-01	;
Diff4	1.18E-02	;
}		
CH4-H2O		
{		
Diff1	-2.05E+01	;
Diff2	5.19E+00	;
Diff3	-4.20E-01	;
Diff4	1.66E-02	;
}		
CH4-CO		
{		
Diff1	-1.65E+01	;
Diff2	3.90E+00	;
Diff3	-2.96E-01	;
Diff4	1.30E-02	;
}		
CH4-HCO		
{		
Diff1	-2.05E+01	;
Diff2	5.13E+00	;
Diff3	-4.24E-01	;
Diff4	1.73E-02	;
}		
CH4-CO2		
{		
Diff1	-1.92E+01	;
Diff2	4.76E+00	;
Diff3	-3.94E-01	;
Diff4	1.67E-02	;
}		
CH4-CH3		
{		
Diff1	-1.77E+01	;
Diff2	4.34E+00	;
Diff3	-3.51E-01	;
Diff4	1.53E-02	;
}		
CH4-CH4		
{		
Diff1	-1.76E+01	;
Diff2	4.32E+00	;
Diff3	-3.48E-01	;
Diff4	1.52E-02	;
}		
HO2-H		
{		
Diff1	-1.76E+01	;
Diff2	5.05E+00	;
Diff3	-4.50E-01	;
Diff4	1.98E-02	;
}		
HO2-H2		
{		
Diff1	-1.27E+01	;
Diff2	2.93E+00	;
Diff3	-1.74E-01	;
Diff4	7.91E-03	;
}		
HO2-O		
{		
Diff1	-1.51E+01	;
Diff2	3.52E+00	;
Diff3	-2.50E-01	;
Diff4	1.12E-02	;
}		
HO2-O2		
{		
Diff1	-1.61E+01	;
Diff2	3.69E+00	;
Diff3	-2.69E-01	;
Diff4	1.19E-02	;
}		
HO2-OH		
{		
Diff1	-1.51E+01	;
Diff2	3.51E+00	;
Diff3	-2.48E-01	;
Diff4	1.11E-02	;
}		
HO2-H2O		
{		
Diff1	-1.97E+01	;
Diff2	4.98E+00	;
Diff3	-4.06E-01	;
Diff4	1.66E-02	;
}		
HO2-CO		
{		
Diff1	-1.58E+01	;
Diff2	3.60E+00	;
Diff3	-2.58E-01	;
Diff4	1.14E-02	;
}		
HO2-HCO		
{		
Diff1	-2.03E+01	;
Diff2	5.11E+00	;
Diff3	-4.32E-01	;
Diff4	1.80E-02	;
}		
HO2-CO2		
{		
Diff1	-1.87E+01	;
Diff2	4.56E+00	;
Diff3	-3.75E-01	;
Diff4	1.62E-02	;
}		
HO2-CH3		
{		
Diff1	-1.71E+01	;
Diff2	4.13E+00	;
Diff3	-3.25E-01	;
Diff4	1.43E-02	;
}		
HO2-CH4		
{		
Diff1	-1.70E+01	;
Diff2	4.08E+00	;
Diff3	-3.19E-01	;
Diff4	1.40E-02	;
}		
HO2-HO2		
{		
Diff1	-1.61E+01	;
Diff2	3.69E+00	;
Diff3	-2.69E-01	;
Diff4	1.19E-02	;
}		
H2O2-H		
{		
Diff1	-1.76E+01	;
Diff2	5.06E+00	;
Diff3	-4.50E-01	;
Diff4	1.99E-02	;
}		
H2O2-H2		
{		
Diff1	-1.27E+01	;
Diff2	2.93E+00	;
Diff3	-1.74E-01	;
Diff4	7.92E-03	;
}		
H2O2-O		
{		
Diff1	-1.52E+01	;
Diff2	3.53E+00	;
Diff3	-2.51E-01	;
Diff4	1.12E-02	;
}		
H2O2-O2		
{		
Diff1	-1.61E+01	;
Diff2	3.69E+00	;
Diff3	-2.69E-01	;
Diff4	1.19E-02	;
}		
H2O2-OH		
{		
Diff1	-1.51E+01	;
Diff2	3.52E+00	;
Diff3	-2.49E-01	;
Diff4	1.11E-02	;
}		
H2O2-H2O		
{		
Diff1	-1.97E+01	;
Diff2	4.96E+00	;
Diff3	-4.05E-01	;
Diff4	1.65E-02	;
}		
H2O2-CO		
{		
Diff1	-1.58E+01	;
Diff2	3.60E+00	;
Diff3	-2.59E-01	;
Diff4	1.15E-02	;
}		
H2O2-HCO		
{		
Diff1	-2.03E+01	;
Diff2	5.11E+00	;
Diff3	-4.32E-01	;
Diff4	1.80E-02	;
}		
H2O2-CO2		
{		
Diff1	-1.87E+01	;
Diff2	4.56E+00	;
Diff3	-3.75E-01	;
Diff4	1.62E-02	;
}		
H2O2-CH3		
{		
Diff1	-1.71E+01	;
Diff2	4.13E+00	;
Diff3	-3.26E-01	;
Diff4	1.43E-02	;
}		
H2O2-CH4		
{		
Diff1	-1.70E+01	;
Diff2	4.09E+00	;
Diff3	-3.20E-01	;
Diff4	1.40E-02	;
}		
H2O2-HO2		
{		
Diff1	-1.61E+01	;
Diff2	3.69E+00	;
Diff3	-2.69E-01	;
Diff4	1.19E-02	;
}		
H2O2-H2O2		
{		
Diff1	-1.61E+01	;
Diff2	3.69E+00	;
Diff3	-2.69E-01	;
Diff4	1.19E-02	;
}		
CH2O-H		
{		
Diff1	-1.54E+01	;
Diff2	3.57E+00	;
Diff3	-1.87E-01	;
Diff4	5.54E-03	;
}		
CH2O-H2		
{		
Diff1	-1.75E+01	;
Diff2	4.67E+00	;
Diff3	-3.94E-01	;
Diff4	1.71E-02	;
}		
CH2O-O		
{		
Diff1	-1.91E+01	;
Diff2	4.86E+00	;
Diff3	-4.04E-01	;
Diff4	1.70E-02	;
}		
CH2O-O2		
{		
Diff1	-2.03E+01	;
Diff2	5.11E+00	;
Diff3	-4.32E-01	;
Diff4	1.80E-02	;
}		
CH2O-OH		
{		
Diff1	-1.92E+01	;
Diff2	4.87E+00	;
Diff3	-4.05E-01	;
Diff4	1.70E-02	;
}		
CH2O-H2O		
{		
Diff1	-1.76E+01	;
Diff2	3.51E+00	;
Diff3	-1.50E-01	;
Diff4	2.96E-03	;
}		
CH2O-CO		
{		
Diff1	-2.01E+01	;
Diff2	5.04E+00	;
Diff3	-4.24E-01	;
Diff4	1.78E-02	;
}		
CH2O-HCO		
{		
Diff1	-1.89E+01	;
Diff2	3.92E+00	;
Diff3	-2.12E-01	;
Diff4	5.94E-03	;
}		
CH2O-CO2		
{		
Diff1	-2.11E+01	;
Diff2	5.07E+00	;
Diff3	-3.97E-01	;
Diff4	1.54E-02	;
}		
CH2O-CH3		
{		
Diff1	-2.05E+01	;
Diff2	5.11E+00	;
Diff3	-4.20E-01	;
Diff4	1.70E-02	;
}		
CH2O-CH4		
{		
Diff1	-2.05E+01	;
Diff2	5.12E+00	;
Diff3	-4.23E-01	;
Diff4	1.72E-02	;
}		
CH2O-HO2		
{		
Diff1	-2.03E+01	;
Diff2	5.11E+00	;
Diff3	-4.32E-01	;
Diff4	1.80E-02	;
}		
CH2O-H2O2		
{		
Diff1	-2.03E+01	;
Diff2	5.11E+00	;
Diff3	-4.32E-01	;
Diff4	1.80E-02	;
}		
CH2O-CH2O		
{		
Diff1	-1.89E+01	;
Diff2	3.92E+00	;
Diff3	-2.12E-01	;
Diff4	5.94E-03	;
}		
CH3O-H		
{		
Diff1	-1.56E+01	;
Diff2	3.70E+00	;
Diff3	-2.10E-01	;
Diff4	6.79E-03	;
}		
CH3O-H2		
{		
Diff1	-1.80E+01	;
Diff2	4.91E+00	;
Diff3	-4.29E-01	;
Diff4	1.89E-02	;
}		
CH3O-O		
{		
Diff1	-1.88E+01	;
Diff2	4.75E+00	;
Diff3	-3.92E-01	;
Diff4	1.66E-02	;
}		
CH3O-O2		
{		
Diff1	-2.02E+01	;
Diff2	5.06E+00	;
Diff3	-4.28E-01	;
Diff4	1.80E-02	;
}		
CH3O-OH		
{		
Diff1	-1.88E+01	;
Diff2	4.75E+00	;
Diff3	-3.93E-01	;
Diff4	1.67E-02	;
}		
CH3O-H2O		
{		
Diff1	-1.62E+01	;
Diff2	2.84E+00	;
Diff3	-5.10E-02	;
Diff4	-1.71E-03	;
}		
CH3O-CO		
{		
Diff1	-2.00E+01	;
Diff2	5.03E+00	;
Diff3	-4.26E-01	;
Diff4	1.80E-02	;
}		
CH3O-HCO		
{		
Diff1	-1.98E+01	;
Diff2	4.38E+00	;
Diff3	-2.81E-01	;
Diff4	9.37E-03	;
}		
CH3O-CO2		
{		
Diff1	-2.11E+01	;
Diff2	5.12E+00	;
Diff3	-4.07E-01	;
Diff4	1.60E-02	;
}		
CH3O-CH3		
{		
Diff1	-2.01E+01	;
Diff2	5.02E+00	;
Diff3	-4.13E-01	;
Diff4	1.69E-02	;
}		
CH3O-CH4		
{		
Diff1	-2.03E+01	;
Diff2	5.09E+00	;
Diff3	-4.21E-01	;
Diff4	1.72E-02	;
}		
CH3O-HO2		
{		
Diff1	-1.99E+01	;
Diff2	4.99E+00	;
Diff3	-4.20E-01	;
Diff4	1.77E-02	;
}		
CH3O-H2O2		
{		
Diff1	-1.99E+01	;
Diff2	4.99E+00	;
Diff3	-4.20E-01	;
Diff4	1.77E-02	;
}		
CH3O-CH2O		
{		
Diff1	-1.98E+01	;
Diff2	4.38E+00	;
Diff3	-2.81E-01	;
Diff4	9.37E-03	;
}		
CH3O-CH3O		
{		
Diff1	-1.91E+01	;
Diff2	4.05E+00	;
Diff3	-2.36E-01	;
Diff4	7.31E-03	;
}		
C2H6-H		
{		
Diff1	-1.74E+01	;
Diff2	4.52E+00	;
Diff3	-3.40E-01	;
Diff4	1.33E-02	;
}		
C2H6-H2		
{		
Diff1	-1.61E+01	;
Diff2	4.15E+00	;
Diff3	-3.35E-01	;
Diff4	1.50E-02	;
}		
C2H6-O		
{		
Diff1	-1.80E+01	;
Diff2	4.47E+00	;
Diff3	-3.67E-01	;
Diff4	1.60E-02	;
}		
C2H6-O2		
{		
Diff1	-1.88E+01	;
Diff2	4.57E+00	;
Diff3	-3.76E-01	;
Diff4	1.62E-02	;
}		
C2H6-OH		
{		
Diff1	-1.80E+01	;
Diff2	4.46E+00	;
Diff3	-3.65E-01	;
Diff4	1.59E-02	;
}		
C2H6-H2O		
{		
Diff1	-2.00E+01	;
Diff2	4.69E+00	;
Diff3	-3.38E-01	;
Diff4	1.24E-02	;
}		
C2H6-CO		
{		
Diff1	-1.86E+01	;
Diff2	4.52E+00	;
Diff3	-3.71E-01	;
Diff4	1.60E-02	;
}		
C2H6-HCO		
{		
Diff1	-2.12E+01	;
Diff2	5.08E+00	;
Diff3	-3.98E-01	;
Diff4	1.54E-02	;
}		
C2H6-CO2		
{		
Diff1	-2.08E+01	;
Diff2	5.11E+00	;
Diff3	-4.26E-01	;
Diff4	1.76E-02	;
}		
C2H6-CH3		
{		
Diff1	-1.94E+01	;
Diff2	4.80E+00	;
Diff3	-3.98E-01	;
Diff4	1.69E-02	;
}		
C2H6-CH4		
{		
Diff1	-1.93E+01	;
Diff2	4.78E+00	;
Diff3	-3.97E-01	;
Diff4	1.68E-02	;
}		
C2H6-HO2		
{		
Diff1	-1.88E+01	;
Diff2	4.57E+00	;
Diff3	-3.76E-01	;
Diff4	1.62E-02	;
}		
C2H6-H2O2		
{		
Diff1	-1.88E+01	;
Diff2	4.57E+00	;
Diff3	-3.76E-01	;
Diff4	1.62E-02	;
}		
C2H6-CH2O		
{		
Diff1	-2.12E+01	;
Diff2	5.08E+00	;
Diff3	-3.98E-01	;
Diff4	1.54E-02	;
}		
C2H6-CH3O		
{		
Diff1	-2.13E+01	;
Diff2	5.18E+00	;
Diff3	-4.19E-01	;
Diff4	1.66E-02	;
}		
C2H6-C2H6		
{		
Diff1	-2.09E+01	;
Diff2	5.13E+00	;
Diff3	-4.30E-01	;
Diff4	1.78E-02	;
}		
C2H4-H		
{		
Diff1	-1.72E+01	;
Diff2	4.61E+00	;
Diff3	-3.61E-01	;
Diff4	1.46E-02	;
}		
C2H4-H2		
{		
Diff1	-1.52E+01	;
Diff2	3.89E+00	;
Diff3	-2.99E-01	;
Diff4	1.33E-02	;
}		
C2H4-O		
{		
Diff1	-1.74E+01	;
Diff2	4.35E+00	;
Diff3	-3.52E-01	;
Diff4	1.53E-02	;
}		
C2H4-O2		
{		
Diff1	-1.84E+01	;
Diff2	4.53E+00	;
Diff3	-3.71E-01	;
Diff4	1.60E-02	;
}		
C2H4-OH		
{		
Diff1	-1.74E+01	;
Diff2	4.34E+00	;
Diff3	-3.50E-01	;
Diff4	1.53E-02	;
}		
C2H4-H2O		
{		
Diff1	-2.02E+01	;
Diff2	4.90E+00	;
Diff3	-3.69E-01	;
Diff4	1.39E-02	;
}		
C2H4-CO		
{		
Diff1	-1.82E+01	;
Diff2	4.46E+00	;
Diff3	-3.64E-01	;
Diff4	1.57E-02	;
}		
C2H4-HCO		
{		
Diff1	-2.09E+01	;
Diff2	5.11E+00	;
Diff3	-4.03E-01	;
Diff4	1.57E-02	;
}		
C2H4-CO2		
{		
Diff1	-2.04E+01	;
Diff2	5.07E+00	;
Diff3	-4.22E-01	;
Diff4	1.74E-02	;
}		
C2H4-CH3		
{		
Diff1	-1.91E+01	;
Diff2	4.78E+00	;
Diff3	-3.98E-01	;
Diff4	1.69E-02	;
}		
C2H4-CH4		
{		
Diff1	-1.90E+01	;
Diff2	4.76E+00	;
Diff3	-3.96E-01	;
Diff4	1.69E-02	;
}		
C2H4-HO2		
{		
Diff1	-1.84E+01	;
Diff2	4.53E+00	;
Diff3	-3.71E-01	;
Diff4	1.60E-02	;
}		
C2H4-H2O2		
{		
Diff1	-1.84E+01	;
Diff2	4.53E+00	;
Diff3	-3.71E-01	;
Diff4	1.60E-02	;
}		
C2H4-CH2O		
{		
Diff1	-2.09E+01	;
Diff2	5.10E+00	;
Diff3	-4.03E-01	;
Diff4	1.57E-02	;
}		
C2H4-CH3O		
{		
Diff1	-2.11E+01	;
Diff2	5.21E+00	;
Diff3	-4.25E-01	;
Diff4	1.69E-02	;
}		
C2H4-C2H6		
{		
Diff1	-2.06E+01	;
Diff2	5.11E+00	;
Diff3	-4.27E-01	;
Diff4	1.77E-02	;
}		
C2H4-C2H4		
{		
Diff1	-2.03E+01	;
Diff2	5.12E+00	;
Diff3	-4.31E-01	;
Diff4	1.79E-02	;
}		
C2H5-H		
{		
Diff1	-1.74E+01	;
Diff2	4.52E+00	;
Diff3	-3.40E-01	;
Diff4	1.33E-02	;
}		
C2H5-H2		
{		
Diff1	-1.61E+01	;
Diff2	4.15E+00	;
Diff3	-3.35E-01	;
Diff4	1.50E-02	;
}		
C2H5-O		
{		
Diff1	-1.80E+01	;
Diff2	4.46E+00	;
Diff3	-3.66E-01	;
Diff4	1.59E-02	;
}		
C2H5-O2		
{		
Diff1	-1.88E+01	;
Diff2	4.57E+00	;
Diff3	-3.76E-01	;
Diff4	1.62E-02	;
}		
C2H5-OH		
{		
Diff1	-1.80E+01	;
Diff2	4.45E+00	;
Diff3	-3.64E-01	;
Diff4	1.59E-02	;
}		
C2H5-H2O		
{		
Diff1	-2.00E+01	;
Diff2	4.71E+00	;
Diff3	-3.40E-01	;
Diff4	1.25E-02	;
}		
C2H5-CO		
{		
Diff1	-1.86E+01	;
Diff2	4.52E+00	;
Diff3	-3.71E-01	;
Diff4	1.60E-02	;
}		
C2H5-HCO		
{		
Diff1	-2.12E+01	;
Diff2	5.08E+00	;
Diff3	-3.98E-01	;
Diff4	1.54E-02	;
}		
C2H5-CO2		
{		
Diff1	-2.07E+01	;
Diff2	5.10E+00	;
Diff3	-4.26E-01	;
Diff4	1.76E-02	;
}		
C2H5-CH3		
{		
Diff1	-1.94E+01	;
Diff2	4.80E+00	;
Diff3	-3.99E-01	;
Diff4	1.69E-02	;
}		
C2H5-CH4		
{		
Diff1	-1.93E+01	;
Diff2	4.78E+00	;
Diff3	-3.97E-01	;
Diff4	1.68E-02	;
}		
C2H5-HO2		
{		
Diff1	-1.88E+01	;
Diff2	4.57E+00	;
Diff3	-3.76E-01	;
Diff4	1.62E-02	;
}		
C2H5-H2O2		
{		
Diff1	-1.88E+01	;
Diff2	4.57E+00	;
Diff3	-3.76E-01	;
Diff4	1.62E-02	;
}		
C2H5-CH2O		
{		
Diff1	-2.12E+01	;
Diff2	5.08E+00	;
Diff3	-3.99E-01	;
Diff4	1.54E-02	;
}		
C2H5-CH3O		
{		
Diff1	-2.13E+01	;
Diff2	5.18E+00	;
Diff3	-4.19E-01	;
Diff4	1.66E-02	;
}		
C2H5-C2H6		
{		
Diff1	-2.09E+01	;
Diff2	5.13E+00	;
Diff3	-4.30E-01	;
Diff4	1.78E-02	;
}		
C2H5-C2H4		
{		
Diff1	-2.06E+01	;
Diff2	5.11E+00	;
Diff3	-4.28E-01	;
Diff4	1.77E-02	;
}		
C2H5-C2H5		
{		
Diff1	-2.09E+01	;
Diff2	5.13E+00	;
Diff3	-4.30E-01	;
Diff4	1.78E-02	;
}		
C2H-H		
{		
Diff1	-1.70E+01	;
Diff2	4.45E+00	;
Diff3	-3.33E-01	;
Diff4	1.31E-02	;
}		
C2H-H2		
{		
Diff1	-1.58E+01	;
Diff2	4.11E+00	;
Diff3	-3.29E-01	;
Diff4	1.47E-02	;
}		
C2H-O		
{		
Diff1	-1.78E+01	;
Diff2	4.48E+00	;
Diff3	-3.67E-01	;
Diff4	1.60E-02	;
}		
C2H-O2		
{		
Diff1	-1.88E+01	;
Diff2	4.66E+00	;
Diff3	-3.87E-01	;
Diff4	1.66E-02	;
}		
C2H-OH		
{		
Diff1	-1.78E+01	;
Diff2	4.46E+00	;
Diff3	-3.66E-01	;
Diff4	1.59E-02	;
}		
C2H-H2O		
{		
Diff1	-2.00E+01	;
Diff2	4.78E+00	;
Diff3	-3.48E-01	;
Diff4	1.28E-02	;
}		
C2H-CO		
{		
Diff1	-1.85E+01	;
Diff2	4.54E+00	;
Diff3	-3.73E-01	;
Diff4	1.61E-02	;
}		
C2H-HCO		
{		
Diff1	-2.09E+01	;
Diff2	5.03E+00	;
Diff3	-3.88E-01	;
Diff4	1.49E-02	;
}		
C2H-CO2		
{		
Diff1	-2.06E+01	;
Diff2	5.08E+00	;
Diff3	-4.20E-01	;
Diff4	1.72E-02	;
}		
C2H-CH3		
{		
Diff1	-1.94E+01	;
Diff2	4.86E+00	;
Diff3	-4.07E-01	;
Diff4	1.72E-02	;
}		
C2H-CH4		
{		
Diff1	-1.93E+01	;
Diff2	4.85E+00	;
Diff3	-4.05E-01	;
Diff4	1.72E-02	;
}		
C2H-HO2		
{		
Diff1	-1.88E+01	;
Diff2	4.66E+00	;
Diff3	-3.87E-01	;
Diff4	1.66E-02	;
}		
C2H-H2O2		
{		
Diff1	-1.88E+01	;
Diff2	4.66E+00	;
Diff3	-3.87E-01	;
Diff4	1.66E-02	;
}		
C2H-CH2O		
{		
Diff1	-2.09E+01	;
Diff2	5.02E+00	;
Diff3	-3.88E-01	;
Diff4	1.49E-02	;
}		
C2H-CH3O		
{		
Diff1	-2.10E+01	;
Diff2	5.12E+00	;
Diff3	-4.08E-01	;
Diff4	1.60E-02	;
}		
C2H-C2H6		
{		
Diff1	-2.08E+01	;
Diff2	5.14E+00	;
Diff3	-4.29E-01	;
Diff4	1.76E-02	;
}		
C2H-C2H4		
{		
Diff1	-2.05E+01	;
Diff2	5.14E+00	;
Diff3	-4.30E-01	;
Diff4	1.77E-02	;
}		
C2H-C2H5		
{		
Diff1	-2.08E+01	;
Diff2	5.15E+00	;
Diff3	-4.30E-01	;
Diff4	1.77E-02	;
}		
C2H-C2H		
{		
Diff1	-2.08E+01	;
Diff2	5.22E+00	;
Diff3	-4.38E-01	;
Diff4	1.80E-02	;
}		
C2H2-H		
{		
Diff1	-1.70E+01	;
Diff2	4.45E+00	;
Diff3	-3.32E-01	;
Diff4	1.31E-02	;
}		
C2H2-H2		
{		
Diff1	-1.59E+01	;
Diff2	4.12E+00	;
Diff3	-3.30E-01	;
Diff4	1.47E-02	;
}		
C2H2-O		
{		
Diff1	-1.78E+01	;
Diff2	4.48E+00	;
Diff3	-3.68E-01	;
Diff4	1.60E-02	;
}		
C2H2-O2		
{		
Diff1	-1.88E+01	;
Diff2	4.66E+00	;
Diff3	-3.87E-01	;
Diff4	1.66E-02	;
}		
C2H2-OH		
{		
Diff1	-1.78E+01	;
Diff2	4.47E+00	;
Diff3	-3.67E-01	;
Diff4	1.60E-02	;
}		
C2H2-H2O		
{		
Diff1	-2.00E+01	;
Diff2	4.77E+00	;
Diff3	-3.47E-01	;
Diff4	1.28E-02	;
}		
C2H2-CO		
{		
Diff1	-1.85E+01	;
Diff2	4.54E+00	;
Diff3	-3.73E-01	;
Diff4	1.61E-02	;
}		
C2H2-HCO		
{		
Diff1	-2.09E+01	;
Diff2	5.03E+00	;
Diff3	-3.89E-01	;
Diff4	1.49E-02	;
}		
C2H2-CO2		
{		
Diff1	-2.06E+01	;
Diff2	5.09E+00	;
Diff3	-4.22E-01	;
Diff4	1.73E-02	;
}		
C2H2-CH3		
{		
Diff1	-1.94E+01	;
Diff2	4.86E+00	;
Diff3	-4.06E-01	;
Diff4	1.72E-02	;
}		
C2H2-CH4		
{		
Diff1	-1.93E+01	;
Diff2	4.85E+00	;
Diff3	-4.05E-01	;
Diff4	1.71E-02	;
}		
C2H2-HO2		
{		
Diff1	-1.88E+01	;
Diff2	4.66E+00	;
Diff3	-3.87E-01	;
Diff4	1.66E-02	;
}		
C2H2-H2O2		
{		
Diff1	-1.88E+01	;
Diff2	4.66E+00	;
Diff3	-3.87E-01	;
Diff4	1.66E-02	;
}		
C2H2-CH2O		
{		
Diff1	-2.09E+01	;
Diff2	5.03E+00	;
Diff3	-3.88E-01	;
Diff4	1.49E-02	;
}		
C2H2-CH3O		
{		
Diff1	-2.10E+01	;
Diff2	5.13E+00	;
Diff3	-4.09E-01	;
Diff4	1.60E-02	;
}		
C2H2-C2H6		
{		
Diff1	-2.08E+01	;
Diff2	5.15E+00	;
Diff3	-4.30E-01	;
Diff4	1.77E-02	;
}		
C2H2-C2H4		
{		
Diff1	-2.05E+01	;
Diff2	5.14E+00	;
Diff3	-4.30E-01	;
Diff4	1.77E-02	;
}		
C2H2-C2H5		
{		
Diff1	-2.08E+01	;
Diff2	5.15E+00	;
Diff3	-4.30E-01	;
Diff4	1.77E-02	;
}		
C2H2-C2H		
{		
Diff1	-2.08E+01	;
Diff2	5.22E+00	;
Diff3	-4.38E-01	;
Diff4	1.79E-02	;
}		
C2H2-C2H2		
{		
Diff1	-2.08E+01	;
Diff2	5.22E+00	;
Diff3	-4.38E-01	;
Diff4	1.80E-02	;
}		
C2H3-H		
{		
Diff1	-1.70E+01	;
Diff2	4.44E+00	;
Diff3	-3.32E-01	;
Diff4	1.31E-02	;
}		
C2H3-H2		
{		
Diff1	-1.59E+01	;
Diff2	4.12E+00	;
Diff3	-3.31E-01	;
Diff4	1.48E-02	;
}		
C2H3-O		
{		
Diff1	-1.79E+01	;
Diff2	4.49E+00	;
Diff3	-3.69E-01	;
Diff4	1.61E-02	;
}		
C2H3-O2		
{		
Diff1	-1.88E+01	;
Diff2	4.66E+00	;
Diff3	-3.87E-01	;
Diff4	1.66E-02	;
}		
C2H3-OH		
{		
Diff1	-1.79E+01	;
Diff2	4.48E+00	;
Diff3	-3.68E-01	;
Diff4	1.60E-02	;
}		
C2H3-H2O		
{		
Diff1	-2.00E+01	;
Diff2	4.76E+00	;
Diff3	-3.45E-01	;
Diff4	1.27E-02	;
}		
C2H3-CO		
{		
Diff1	-1.85E+01	;
Diff2	4.55E+00	;
Diff3	-3.73E-01	;
Diff4	1.61E-02	;
}		
C2H3-HCO		
{		
Diff1	-2.09E+01	;
Diff2	5.03E+00	;
Diff3	-3.89E-01	;
Diff4	1.49E-02	;
}		
C2H3-CO2		
{		
Diff1	-2.06E+01	;
Diff2	5.10E+00	;
Diff3	-4.23E-01	;
Diff4	1.73E-02	;
}		
C2H3-CH3		
{		
Diff1	-1.94E+01	;
Diff2	4.86E+00	;
Diff3	-4.06E-01	;
Diff4	1.72E-02	;
}		
C2H3-CH4		
{		
Diff1	-1.93E+01	;
Diff2	4.84E+00	;
Diff3	-4.04E-01	;
Diff4	1.71E-02	;
}		
C2H3-HO2		
{		
Diff1	-1.88E+01	;
Diff2	4.66E+00	;
Diff3	-3.87E-01	;
Diff4	1.66E-02	;
}		
C2H3-H2O2		
{		
Diff1	-1.88E+01	;
Diff2	4.66E+00	;
Diff3	-3.87E-01	;
Diff4	1.66E-02	;
}		
C2H3-CH2O		
{		
Diff1	-2.09E+01	;
Diff2	5.03E+00	;
Diff3	-3.89E-01	;
Diff4	1.49E-02	;
}		
C2H3-CH3O		
{		
Diff1	-2.10E+01	;
Diff2	5.13E+00	;
Diff3	-4.09E-01	;
Diff4	1.61E-02	;
}		
C2H3-C2H6		
{		
Diff1	-2.08E+01	;
Diff2	5.15E+00	;
Diff3	-4.30E-01	;
Diff4	1.77E-02	;
}		
C2H3-C2H4		
{		
Diff1	-2.05E+01	;
Diff2	5.14E+00	;
Diff3	-4.30E-01	;
Diff4	1.77E-02	;
}		
C2H3-C2H5		
{		
Diff1	-2.08E+01	;
Diff2	5.16E+00	;
Diff3	-4.31E-01	;
Diff4	1.77E-02	;
}		
C2H3-C2H		
{		
Diff1	-2.08E+01	;
Diff2	5.22E+00	;
Diff3	-4.37E-01	;
Diff4	1.79E-02	;
}		
C2H3-C2H2		
{		
Diff1	-2.08E+01	;
Diff2	5.22E+00	;
Diff3	-4.38E-01	;
Diff4	1.79E-02	;
}		
C2H3-C2H3		
{		
Diff1	-2.08E+01	;
Diff2	5.22E+00	;
Diff3	-4.38E-01	;
Diff4	1.80E-02	;
}		
CH3OH-H		
{		
Diff1	-1.55E+01	;
Diff2	3.60E+00	;
Diff3	-1.92E-01	;
Diff4	5.84E-03	;
}		
CH3OH-H2		
{		
Diff1	-1.78E+01	;
Diff2	4.83E+00	;
Diff3	-4.17E-01	;
Diff4	1.83E-02	;
}		
CH3OH-O		
{		
Diff1	-1.91E+01	;
Diff2	4.83E+00	;
Diff3	-4.00E-01	;
Diff4	1.68E-02	;
}		
CH3OH-O2		
{		
Diff1	-2.03E+01	;
Diff2	5.10E+00	;
Diff3	-4.31E-01	;
Diff4	1.80E-02	;
}		
CH3OH-OH		
{		
Diff1	-1.91E+01	;
Diff2	4.84E+00	;
Diff3	-4.01E-01	;
Diff4	1.69E-02	;
}		
CH3OH-H2O		
{		
Diff1	-1.78E+01	;
Diff2	3.62E+00	;
Diff3	-1.67E-01	;
Diff4	3.81E-03	;
}		
CH3OH-CO		
{		
Diff1	-2.00E+01	;
Diff2	5.01E+00	;
Diff3	-4.21E-01	;
Diff4	1.76E-02	;
}		
CH3OH-HCO		
{		
Diff1	-1.91E+01	;
Diff2	4.03E+00	;
Diff3	-2.27E-01	;
Diff4	6.71E-03	;
}		
CH3OH-CO2		
{		
Diff1	-2.11E+01	;
Diff2	5.09E+00	;
Diff3	-4.01E-01	;
Diff4	1.56E-02	;
}		
CH3OH-CH3		
{		
Diff1	-2.04E+01	;
Diff2	5.08E+00	;
Diff3	-4.17E-01	;
Diff4	1.70E-02	;
}		
CH3OH-CH4		
{		
Diff1	-2.04E+01	;
Diff2	5.09E+00	;
Diff3	-4.20E-01	;
Diff4	1.71E-02	;
}		
CH3OH-HO2		
{		
Diff1	-2.03E+01	;
Diff2	5.10E+00	;
Diff3	-4.31E-01	;
Diff4	1.80E-02	;
}		
CH3OH-H2O2		
{		
Diff1	-2.03E+01	;
Diff2	5.10E+00	;
Diff3	-4.31E-01	;
Diff4	1.80E-02	;
}		
CH3OH-CH2O		
{		
Diff1	-1.91E+01	;
Diff2	4.03E+00	;
Diff3	-2.27E-01	;
Diff4	6.71E-03	;
}		
CH3OH-CH3O		
{		
Diff1	-2.00E+01	;
Diff2	4.45E+00	;
Diff3	-2.93E-01	;
Diff4	9.93E-03	;
}		
CH3OH-C2H6		
{		
Diff1	-2.12E+01	;
Diff2	5.10E+00	;
Diff3	-4.01E-01	;
Diff4	1.56E-02	;
}		
CH3OH-C2H4		
{		
Diff1	-2.10E+01	;
Diff2	5.13E+00	;
Diff3	-4.08E-01	;
Diff4	1.60E-02	;
}		
CH3OH-C2H5		
{		
Diff1	-2.12E+01	;
Diff2	5.10E+00	;
Diff3	-4.02E-01	;
Diff4	1.56E-02	;
}		
CH3OH-C2H		
{		
Diff1	-2.09E+01	;
Diff2	5.03E+00	;
Diff3	-3.89E-01	;
Diff4	1.49E-02	;
}		
CH3OH-C2H2		
{		
Diff1	-2.09E+01	;
Diff2	5.03E+00	;
Diff3	-3.90E-01	;
Diff4	1.50E-02	;
}		
CH3OH-C2H3		
{		
Diff1	-2.09E+01	;
Diff2	5.04E+00	;
Diff3	-3.91E-01	;
Diff4	1.50E-02	;
}		
CH3OH-CH3OH		
{		
Diff1	-1.93E+01	;
Diff2	4.13E+00	;
Diff3	-2.42E-01	;
Diff4	7.44E-03	;
}		
CH2OH-H		
{		
Diff1	-1.56E+01	;
Diff2	3.70E+00	;
Diff3	-2.10E-01	;
Diff4	6.79E-03	;
}		
CH2OH-H2		
{		
Diff1	-1.80E+01	;
Diff2	4.91E+00	;
Diff3	-4.29E-01	;
Diff4	1.89E-02	;
}		
CH2OH-O		
{		
Diff1	-1.88E+01	;
Diff2	4.75E+00	;
Diff3	-3.92E-01	;
Diff4	1.66E-02	;
}		
CH2OH-O2		
{		
Diff1	-2.02E+01	;
Diff2	5.06E+00	;
Diff3	-4.28E-01	;
Diff4	1.80E-02	;
}		
CH2OH-OH		
{		
Diff1	-1.88E+01	;
Diff2	4.75E+00	;
Diff3	-3.93E-01	;
Diff4	1.67E-02	;
}		
CH2OH-H2O		
{		
Diff1	-1.62E+01	;
Diff2	2.84E+00	;
Diff3	-5.10E-02	;
Diff4	-1.71E-03	;
}		
CH2OH-CO		
{		
Diff1	-2.00E+01	;
Diff2	5.03E+00	;
Diff3	-4.26E-01	;
Diff4	1.80E-02	;
}		
CH2OH-HCO		
{		
Diff1	-1.98E+01	;
Diff2	4.38E+00	;
Diff3	-2.81E-01	;
Diff4	9.37E-03	;
}		
CH2OH-CO2		
{		
Diff1	-2.11E+01	;
Diff2	5.12E+00	;
Diff3	-4.07E-01	;
Diff4	1.60E-02	;
}		
CH2OH-CH3		
{		
Diff1	-2.01E+01	;
Diff2	5.02E+00	;
Diff3	-4.13E-01	;
Diff4	1.69E-02	;
}		
CH2OH-CH4		
{		
Diff1	-2.03E+01	;
Diff2	5.09E+00	;
Diff3	-4.21E-01	;
Diff4	1.72E-02	;
}		
CH2OH-HO2		
{		
Diff1	-1.99E+01	;
Diff2	4.99E+00	;
Diff3	-4.20E-01	;
Diff4	1.77E-02	;
}		
CH2OH-H2O2		
{		
Diff1	-1.99E+01	;
Diff2	4.99E+00	;
Diff3	-4.20E-01	;
Diff4	1.77E-02	;
}		
CH2OH-CH2O		
{		
Diff1	-1.98E+01	;
Diff2	4.38E+00	;
Diff3	-2.81E-01	;
Diff4	9.37E-03	;
}		
CH2OH-CH3O		
{		
Diff1	-1.91E+01	;
Diff2	4.05E+00	;
Diff3	-2.36E-01	;
Diff4	7.31E-03	;
}		
CH2OH-C2H6		
{		
Diff1	-2.13E+01	;
Diff2	5.18E+00	;
Diff3	-4.19E-01	;
Diff4	1.66E-02	;
}		
CH2OH-C2H4		
{		
Diff1	-2.11E+01	;
Diff2	5.21E+00	;
Diff3	-4.25E-01	;
Diff4	1.69E-02	;
}		
CH2OH-C2H5		
{		
Diff1	-2.13E+01	;
Diff2	5.18E+00	;
Diff3	-4.19E-01	;
Diff4	1.66E-02	;
}		
CH2OH-C2H		
{		
Diff1	-2.10E+01	;
Diff2	5.12E+00	;
Diff3	-4.08E-01	;
Diff4	1.60E-02	;
}		
CH2OH-C2H2		
{		
Diff1	-2.10E+01	;
Diff2	5.13E+00	;
Diff3	-4.09E-01	;
Diff4	1.60E-02	;
}		
CH2OH-C2H3		
{		
Diff1	-2.10E+01	;
Diff2	5.13E+00	;
Diff3	-4.09E-01	;
Diff4	1.61E-02	;
}		
CH2OH-CH3OH		
{		
Diff1	-2.00E+01	;
Diff2	4.45E+00	;
Diff3	-2.93E-01	;
Diff4	9.93E-03	;
}		
CH2OH-CH2OH		
{		
Diff1	-1.91E+01	;
Diff2	4.05E+00	;
Diff3	-2.36E-01	;
Diff4	7.31E-03	;
}		
CH2CO-H		
{		
Diff1	-1.51E+01	;
Diff2	3.41E+00	;
Diff3	-1.66E-01	;
Diff4	4.59E-03	;
}		
CH2CO-H2		
{		
Diff1	-1.77E+01	;
Diff2	4.74E+00	;
Diff3	-4.05E-01	;
Diff4	1.78E-02	;
}		
CH2CO-O		
{		
Diff1	-1.90E+01	;
Diff2	4.76E+00	;
Diff3	-3.91E-01	;
Diff4	1.64E-02	;
}		
CH2CO-O2		
{		
Diff1	-2.01E+01	;
Diff2	4.98E+00	;
Diff3	-4.17E-01	;
Diff4	1.74E-02	;
}		
CH2CO-OH		
{		
Diff1	-1.90E+01	;
Diff2	4.76E+00	;
Diff3	-3.92E-01	;
Diff4	1.65E-02	;
}		
CH2CO-H2O		
{		
Diff1	-1.84E+01	;
Diff2	3.82E+00	;
Diff3	-1.99E-01	;
Diff4	5.48E-03	;
}		
CH2CO-CO		
{		
Diff1	-2.00E+01	;
Diff2	4.94E+00	;
Diff3	-4.14E-01	;
Diff4	1.74E-02	;
}		
CH2CO-HCO		
{		
Diff1	-1.97E+01	;
Diff2	4.26E+00	;
Diff3	-2.64E-01	;
Diff4	8.53E-03	;
}		
CH2CO-CO2		
{		
Diff1	-2.14E+01	;
Diff2	5.18E+00	;
Diff3	-4.18E-01	;
Diff4	1.65E-02	;
}		
CH2CO-CH3		
{		
Diff1	-2.00E+01	;
Diff2	4.91E+00	;
Diff3	-3.95E-01	;
Diff4	1.60E-02	;
}		
CH2CO-CH4		
{		
Diff1	-2.01E+01	;
Diff2	4.93E+00	;
Diff3	-3.99E-01	;
Diff4	1.62E-02	;
}		
CH2CO-HO2		
{		
Diff1	-2.01E+01	;
Diff2	4.98E+00	;
Diff3	-4.17E-01	;
Diff4	1.75E-02	;
}		
CH2CO-H2O2		
{		
Diff1	-2.01E+01	;
Diff2	4.98E+00	;
Diff3	-4.18E-01	;
Diff4	1.75E-02	;
}		
CH2CO-CH2O		
{		
Diff1	-1.97E+01	;
Diff2	4.27E+00	;
Diff3	-2.64E-01	;
Diff4	8.54E-03	;
}		
CH2CO-CH3O		
{		
Diff1	-2.04E+01	;
Diff2	4.60E+00	;
Diff3	-3.16E-01	;
Diff4	1.12E-02	;
}		
CH2CO-C2H6		
{		
Diff1	-2.14E+01	;
Diff2	5.14E+00	;
Diff3	-4.11E-01	;
Diff4	1.62E-02	;
}		
CH2CO-C2H4		
{		
Diff1	-2.10E+01	;
Diff2	5.09E+00	;
Diff3	-4.05E-01	;
Diff4	1.59E-02	;
}		
CH2CO-C2H5		
{		
Diff1	-2.13E+01	;
Diff2	5.13E+00	;
Diff3	-4.10E-01	;
Diff4	1.61E-02	;
}		
CH2CO-C2H		
{		
Diff1	-2.10E+01	;
Diff2	5.04E+00	;
Diff3	-3.94E-01	;
Diff4	1.53E-02	;
}		
CH2CO-C2H2		
{		
Diff1	-2.10E+01	;
Diff2	5.05E+00	;
Diff3	-3.96E-01	;
Diff4	1.54E-02	;
}		
CH2CO-C2H3		
{		
Diff1	-2.11E+01	;
Diff2	5.06E+00	;
Diff3	-3.97E-01	;
Diff4	1.55E-02	;
}		
CH2CO-CH3OH		
{		
Diff1	-1.99E+01	;
Diff2	4.35E+00	;
Diff3	-2.78E-01	;
Diff4	9.19E-03	;
}		
CH2CO-CH2OH		
{		
Diff1	-2.04E+01	;
Diff2	4.60E+00	;
Diff3	-3.16E-01	;
Diff4	1.12E-02	;
}		
CH2CO-CH2CO		
{		
Diff1	-2.05E+01	;
Diff2	4.55E+00	;
Diff3	-3.08E-01	;
Diff4	1.07E-02	;
}		
HCCO-H		
{		
Diff1	-1.70E+01	;
Diff2	4.86E+00	;
Diff3	-4.16E-01	;
Diff4	1.80E-02	;
}		
HCCO-H2		
{		
Diff1	-1.31E+01	;
Diff2	3.19E+00	;
Diff3	-2.08E-01	;
Diff4	9.38E-03	;
}		
HCCO-O		
{		
Diff1	-1.58E+01	;
Diff2	3.86E+00	;
Diff3	-2.92E-01	;
Diff4	1.29E-02	;
}		
HCCO-O2		
{		
Diff1	-1.69E+01	;
Diff2	4.08E+00	;
Diff3	-3.18E-01	;
Diff4	1.39E-02	;
}		
HCCO-OH		
{		
Diff1	-1.57E+01	;
Diff2	3.85E+00	;
Diff3	-2.90E-01	;
Diff4	1.28E-02	;
}		
HCCO-H2O		
{		
Diff1	-1.99E+01	;
Diff2	5.10E+00	;
Diff3	-4.13E-01	;
Diff4	1.65E-02	;
}		
HCCO-CO		
{		