/*---------------------------------------------------------------------------*\
| =========                 |                                                 |
| \\      /  F ield         | OpenFOAM: The Open Source CFD Toolbox           |
|  \\    /   O peration     | Version:  1.0                                   |
|   \\  /    A nd           | Web:      http://www.openfoam.org               |
|    \\/     M anipulation  |                                                 |
\*---------------------------------------------------------------------------*/
FoamFile
{
version                         2.0;
format                          ascii;
class                           dictionary;
object                          speciesLambda;
}
H		
{		
Lambda1	-8.55E-01	;
Lambda2	3.65E+00	;
Lambda3	-3.98E-01	;
Lambda4	1.76E-02	;
}		
		
H2		
{		
Lambda1	9.13E+00	;
Lambda2	-4.35E-01	;
Lambda3	1.13E-01	;
Lambda4	-2.53E-03	;
}		
		
O		
{		
Lambda1	1.68E+00	;
Lambda2	1.93E+00	;
Lambda3	-1.74E-01	;
Lambda4	7.84E-03	;
}		
		
O2		
{		
Lambda1	-1.94E+00	;
Lambda2	2.89E+00	;
Lambda3	-2.71E-01	;
Lambda4	1.15E-02	;
}		
		
OH		
{		
Lambda1	1.00E+01	;
Lambda2	-1.54E+00	;
Lambda3	3.03E-01	;
Lambda4	-1.30E-02	;
}		
		
H2O		
{		
Lambda1	2.35E+01	;
Lambda2	-9.06E+00	;
Lambda3	1.55E+00	;
Lambda4	-7.72E-02	;
}		
		
CO		
{		
Lambda1	1.16E+01	;
Lambda2	-3.02E+00	;
Lambda3	5.82E-01	;
Lambda4	-2.93E-02	;
}		
		
HCO		
{		
Lambda1	5.61E+00	;
Lambda2	-1.91E+00	;
Lambda3	5.90E-01	;
Lambda4	-3.57E-02	;
}		
		
CO2		
{		
Lambda1	-1.15E+01	;
Lambda2	5.97E+00	;
Lambda3	-5.83E-01	;
Lambda4	2.11E-02	;
}		
		
CH3		
{		
Lambda1	1.36E+01	;
Lambda2	-4.45E+00	;
Lambda3	8.76E-01	;
Lambda4	-4.60E-02	;
}		
		
CH4		
{		
Lambda1	1.30E+01	;
Lambda2	-4.86E+00	;
Lambda3	1.03E+00	;
Lambda4	-5.70E-02	;
}		
		
HO2		
{		
Lambda1	4.77E+00	;
Lambda2	-4.28E-01	;
Lambda3	2.68E-01	;
Lambda4	-1.65E-02	;
}		
		
H2O2		
{		
Lambda1	8.98E-01	;
Lambda2	1.33E+00	;
Lambda3	1.82E-02	;
Lambda4	-4.47E-03	;
}		
		
CH2O		
{		
Lambda1	4.84E+00	;
Lambda2	-2.13E+00	;
Lambda3	6.99E-01	;
Lambda4	-4.38E-02	;
}		
		
CH3O		
{		
Lambda1	-6.14E+00	;
Lambda2	2.47E+00	;
Lambda3	6.48E-02	;
Lambda4	-1.46E-02	;
}		
		
C2H6		
{		
Lambda1	-1.45E+01	;
Lambda2	6.20E+00	;
Lambda3	-4.66E-01	;
Lambda4	1.03E-02	;
}		
		
C2H4		
{		
Lambda1	-1.34E+01	;
Lambda2	6.12E+00	;
Lambda3	-4.86E-01	;
Lambda4	1.24E-02	;
}		
		
C2H5		
{		
Lambda1	-1.33E+01	;
Lambda2	5.82E+00	;
Lambda3	-4.38E-01	;
Lambda4	1.02E-02	;
}		
		
C2H		
{		
Lambda1	-1.02E+01	;
Lambda2	5.79E+00	;
Lambda3	-6.06E-01	;
Lambda4	2.48E-02	;
}		
		
C2H2		
{		
Lambda1	-9.20E+00	;
Lambda2	5.13E+00	;
Lambda3	-4.67E-01	;
Lambda4	1.64E-02	;
}		
		
C2H3		
{		
Lambda1	-1.37E+01	;
Lambda2	6.35E+00	;
Lambda3	-5.53E-01	;
Lambda4	1.71E-02	;
}		
		
CH3OH		
{		
Lambda1	-3.49E+00	;
Lambda2	1.34E+00	;
Lambda3	2.29E-01	;
Lambda4	-2.22E-02	;
}		
		
CH2OH		
{		
Lambda1	-9.74E+00	;
Lambda2	4.70E+00	;
Lambda3	-3.33E-01	;
Lambda4	7.30E-03	;
}		
		
CH2CO		
{		
Lambda1	-9.55E+00	;
Lambda2	4.54E+00	;
Lambda3	-3.10E-01	;
Lambda4	5.99E-03	;
}		
		
HCCO		
{		
Lambda1	-5.33E-01	;
Lambda2	2.22E+00	;
Lambda3	-1.08E-01	;
Lambda4	1.07E-03	;
}		
		
CH3CO		
{		
Lambda1	-7.52E+00	;
Lambda2	3.30E+00	;
Lambda3	-8.48E-02	;
Lambda4	-6.42E-03	;
}		
		
CH2CHO		
{		
Lambda1	-6.27E+00	;
Lambda2	2.91E+00	;
Lambda3	-4.36E-02	;
Lambda4	-7.78E-03	;
}		
		
CH3CHO		
{		
Lambda1	-1.06E+01	;
Lambda2	4.47E+00	;
Lambda3	-2.27E-01	;
Lambda4	-6.31E-04	;
}		
		
C3H4-A		
{		
Lambda1	-1.33E+01	;
Lambda2	5.92E+00	;
Lambda3	-4.65E-01	;
Lambda4	1.17E-02	;
}		
		
C3H4-P		
{		
Lambda1	-9.52E+00	;
Lambda2	4.34E+00	;
Lambda3	-2.44E-01	;
Lambda4	1.42E-03	;
}		
		
C3H6		
{		
Lambda1	-1.54E+01	;
Lambda2	6.67E+00	;
Lambda3	-5.37E-01	;
Lambda4	1.38E-02	;
}		
		
C4H6		
{		
Lambda1	-2.27E+01	;
Lambda2	9.78E+00	;
Lambda3	-9.94E-01	;
Lambda4	3.58E-02	;
}		
		
NC3H7		
{		
Lambda1	-1.59E+01	;
Lambda2	7.01E+00	;
Lambda3	-6.13E-01	;
Lambda4	1.85E-02	;
}		
		
C4H7		
{		
Lambda1	-1.91E+01	;
Lambda2	8.16E+00	;
Lambda3	-7.46E-01	;
Lambda4	2.36E-02	;
}		
		
C4H8-1		
{		
Lambda1	-1.96E+01	;
Lambda2	8.31E+00	;
Lambda3	-7.56E-01	;
Lambda4	2.36E-02	;
}		
		
PC4H9		
{		
Lambda1	-1.83E+01	;
Lambda2	7.74E+00	;
Lambda3	-6.83E-01	;
Lambda4	2.05E-02	;
}		
		
CH3COCH2		
{		
Lambda1	-1.28E+01	;
Lambda2	5.42E+00	;
Lambda3	-3.70E-01	;
Lambda4	6.34E-03	;
}		
		
C2H5CHO		
{		
Lambda1	-8.06E+00	;
Lambda2	3.26E+00	;
Lambda3	-4.52E-02	;
Lambda4	-9.47E-03	;
}		
		
C5H9		
{		
Lambda1	-2.13E+01	;
Lambda2	8.85E+00	;
Lambda3	-8.23E-01	;
Lambda4	2.64E-02	;
}		
		
C5H10-1		
{		
Lambda1	-1.99E+01	;
Lambda2	8.27E+00	;
Lambda3	-7.46E-01	;
Lambda4	2.29E-02	;
}		
		
C5H11-1		
{		
Lambda1	-1.77E+01	;
Lambda2	7.36E+00	;
Lambda3	-6.11E-01	;
Lambda4	1.64E-02	;
}		
		
C2H5O		
{		
Lambda1	-1.43E+01	;
Lambda2	5.87E+00	;
Lambda3	-4.05E-01	;
Lambda4	6.97E-03	;
}		
		
CH3O2		
{		
Lambda1	5.28E+00	;
Lambda2	-1.93E+00	;
Lambda3	6.29E-01	;
Lambda4	-3.87E-02	;
}		
		
CH3O2H		
{		
Lambda1	-5.86E+00	;
Lambda2	2.81E+00	;
Lambda3	-2.51E-02	;
Lambda4	-8.87E-03	;
}		
		
C2H3O1-2		
{		
Lambda1	-3.21E+01	;
Lambda2	1.36E+01	;
Lambda3	-1.52E+00	;
Lambda4	5.98E-02	;
}		
		
C2H3CO		
{		
Lambda1	-1.56E+01	;
Lambda2	7.03E+00	;
Lambda3	-6.45E-01	;
Lambda4	2.10E-02	;
}		
		
C2H3CHO		
{		
Lambda1	-1.75E+01	;
Lambda2	7.36E+00	;
Lambda3	-6.46E-01	;
Lambda4	1.93E-02	;
}		
		
C3H5O		
{		
Lambda1	-1.68E+01	;
Lambda2	7.10E+00	;
Lambda3	-6.05E-01	;
Lambda4	1.72E-02	;
}		
		
C4H7O		
{		
Lambda1	-2.45E+01	;
Lambda2	1.02E+01	;
Lambda3	-1.03E+00	;
Lambda4	3.63E-02	;
}		
		
C3H5-A		
{		
Lambda1	-2.08E+01	;
Lambda2	9.07E+00	;
Lambda3	-8.94E-01	;
Lambda4	3.11E-02	;
}		
		
C3H3		
{		
Lambda1	-9.95E+00	;
Lambda2	5.06E+00	;
Lambda3	-4.15E-01	;
Lambda4	1.21E-02	;
}		
		
C3H2		
{		
Lambda1	-2.41E+00	;
Lambda2	2.57E+00	;
Lambda3	-1.49E-01	;
Lambda4	2.84E-03	;
}		
		
CH2(S)		
{		
Lambda1	1.84E+01	;
Lambda2	-6.26E+00	;
Lambda3	1.09E+00	;
Lambda4	-5.49E-02	;
}		
		
NC3H7CHO		
{		
Lambda1	-1.08E+01	;
Lambda2	4.39E+00	;
Lambda3	-2.01E-01	;
Lambda4	-2.34E-03	;
}		
		
NC3H7CO		
{		
Lambda1	-8.85E+00	;
Lambda2	3.63E+00	;
Lambda3	-1.04E-01	;
Lambda4	-6.50E-03	;
}		
		
C2H5COCH2		
{		
Lambda1	-1.22E+01	;
Lambda2	4.98E+00	;
Lambda3	-2.91E-01	;
Lambda4	1.97E-03	;
}		
		
CH3CHCO		
{		
Lambda1	-1.45E+01	;
Lambda2	6.46E+00	;
Lambda3	-5.43E-01	;
Lambda4	1.54E-02	;
}		
		
NC3H7COCH3		
{		
Lambda1	-1.23E+01	;
Lambda2	4.88E+00	;
Lambda3	-2.59E-01	;
Lambda4	-1.08E-04	;
}		
		
NC3H7COCH2		
{		
Lambda1	-1.33E+01	;
Lambda2	5.45E+00	;
Lambda3	-3.53E-01	;
Lambda4	4.81E-03	;
}		
		
NC7H16		
{		
Lambda1	-1.80E+01	;
Lambda2	7.28E+00	;
Lambda3	-5.89E-01	;
Lambda4	1.50E-02	;
}		
		
C7H15-1		
{		
Lambda1	-1.71E+01	;
Lambda2	6.96E+00	;
Lambda3	-5.51E-01	;
Lambda4	1.34E-02	;
}		
		
C7H15		
{		
Lambda1	-1.73E+01	;
Lambda2	6.98E+00	;
Lambda3	-5.47E-01	;
Lambda4	1.31E-02	;
}		
		
C7H15O2		
{		
Lambda1	-1.28E+01	;
Lambda2	5.09E+00	;
Lambda3	-2.89E-01	;
Lambda4	1.32E-03	;
}		
		
C7H14OOH		
{		
Lambda1	-1.38E+01	;
Lambda2	5.54E+00	;
Lambda3	-3.53E-01	;
Lambda4	4.36E-03	;
}		
		
C7H14OOHO2		
{		
Lambda1	-1.28E+01	;
Lambda2	5.11E+00	;
Lambda3	-3.07E-01	;
Lambda4	2.70E-03	;
}		
		
C7H14O		
{		
Lambda1	-2.39E+01	;
Lambda2	9.68E+00	;
Lambda3	-9.17E-01	;
Lambda4	2.99E-02	;
}		
		
NC7KET		
{		
Lambda1	-1.22E+01	;
Lambda2	4.85E+00	;
Lambda3	-2.62E-01	;
Lambda4	3.18E-04	;
}		
		
N2		
{		
Lambda1	1.29E+01	;
Lambda2	-3.53E+00	;
Lambda3	6.46E-01	;
Lambda4	-3.19E-02	;
}		
		
