/*---------------------------------------------------------------------------*\
| =========                 |                                                 |
| \\      /  F ield         | OpenFOAM: The Open Source CFD Toolbox           |
|  \\    /   O peration     | Version:  1.0                                   |
|   \\  /    A nd           | Web:      http://www.openfoam.org               |
|    \\/     M anipulation  |                                                 |
\*---------------------------------------------------------------------------*/
FoamFile
{
version                         2.0;
format                          ascii;
class                           dictionary;
object                          binaryDiff;
}

// Scheme: transport fitting

AR-AR
{
Diff1	-1.771E+01	;
Diff2	4.289E+00	;
Diff3	-3.450E-01	;
Diff4	1.508E-02	;
}
HE-AR
{
Diff1	-1.101E+01	;
Diff2	2.218E+00	;
Diff3	-7.967E-02	;
Diff4	3.740E-03	;
}
HE-HE
{
Diff1	-8.458E+00	;
Diff2	1.467E+00	;
Diff3	2.374E-02	;
Diff4	-9.459E-04	;
}
H-AR
{
Diff1	-1.752E+01	;
Diff2	4.960E+00	;
Diff3	-4.294E-01	;
Diff4	1.861E-02	;
}
H-HE
{
Diff1	-9.809E+00	;
Diff2	2.224E+00	;
Diff3	-7.961E-02	;
Diff4	3.701E-03	;
}
H-H
{
Diff1	-1.519E+01	;
Diff2	4.384E+00	;
Diff3	-3.558E-01	;
Diff4	1.548E-02	;
}
H2-AR
{
Diff1	-1.342E+01	;
Diff2	3.222E+00	;
Diff3	-2.129E-01	;
Diff4	9.628E-03	;
}
H2-HE
{
Diff1	-9.444E+00	;
Diff2	1.870E+00	;
Diff3	-3.182E-02	;
Diff4	1.559E-03	;
}
H2-H
{
Diff1	-1.202E+01	;
Diff2	3.033E+00	;
Diff3	-1.860E-01	;
Diff4	8.362E-03	;
}
H2-H2
{
Diff1	-1.032E+01	;
Diff2	2.192E+00	;
Diff3	-7.539E-02	;
Diff4	3.511E-03	;
}
O-AR
{
Diff1	-1.582E+01	;
Diff2	3.776E+00	;
Diff3	-2.815E-01	;
Diff4	1.245E-02	;
}
O-HE
{
Diff1	-9.904E+00	;
Diff2	1.876E+00	;
Diff3	-3.116E-02	;
Diff4	1.460E-03	;
}
O-H
{
Diff1	-1.531E+01	;
Diff2	4.271E+00	;
Diff3	-3.482E-01	;
Diff4	1.545E-02	;
}
O-H2
{
Diff1	-1.093E+01	;
Diff2	2.306E+00	;
Diff3	-8.736E-02	;
Diff4	3.898E-03	;
}
O-O
{
Diff1	-1.357E+01	;
Diff2	3.062E+00	;
Diff3	-1.890E-01	;
Diff4	8.454E-03	;
}
O2-AR
{
Diff1	-1.677E+01	;
Diff2	3.946E+00	;
Diff3	-3.013E-01	;
Diff4	1.321E-02	;
}
O2-HE
{
Diff1	-1.086E+01	;
Diff2	2.156E+00	;
Diff3	-7.178E-02	;
Diff4	3.413E-03	;
}
O2-H
{
Diff1	-1.761E+01	;
Diff2	5.048E+00	;
Diff3	-4.491E-01	;
Diff4	1.981E-02	;
}
O2-H2
{
Diff1	-1.271E+01	;
Diff2	2.930E+00	;
Diff3	-1.740E-01	;
Diff4	7.901E-03	;
}
O2-O
{
Diff1	-1.511E+01	;
Diff2	3.515E+00	;
Diff3	-2.491E-01	;
Diff4	1.112E-02	;
}
O2-O2
{
Diff1	-1.605E+01	;
Diff2	3.688E+00	;
Diff3	-2.691E-01	;
Diff4	1.188E-02	;
}
OH-AR
{
Diff1	-1.581E+01	;
Diff2	3.761E+00	;
Diff3	-2.795E-01	;
Diff4	1.236E-02	;
}
OH-HE
{
Diff1	-9.909E+00	;
Diff2	1.875E+00	;
Diff3	-3.115E-02	;
Diff4	1.460E-03	;
}
OH-H
{
Diff1	-1.533E+01	;
Diff2	4.278E+00	;
Diff3	-3.491E-01	;
Diff4	1.549E-02	;
}
OH-H2
{
Diff1	-1.094E+01	;
Diff2	2.306E+00	;
Diff3	-8.736E-02	;
Diff4	3.897E-03	;
}
OH-O
{
Diff1	-1.358E+01	;
Diff2	3.063E+00	;
Diff3	-1.890E-01	;
Diff4	8.457E-03	;
}
OH-O2
{
Diff1	-1.510E+01	;
Diff2	3.500E+00	;
Diff3	-2.470E-01	;
Diff4	1.102E-02	;
}
OH-OH
{
Diff1	-1.360E+01	;
Diff2	3.062E+00	;
Diff3	-1.890E-01	;
Diff4	8.454E-03	;
}
H2O-AR
{
Diff1	-1.991E+01	;
Diff2	4.985E+00	;
Diff3	-3.988E-01	;
Diff4	1.593E-02	;
}
H2O-HE
{
Diff1	-1.323E+01	;
Diff2	3.170E+00	;
Diff3	-2.049E-01	;
Diff4	9.227E-03	;
}
H2O-H
{
Diff1	-1.651E+01	;
Diff2	4.221E+00	;
Diff3	-2.826E-01	;
Diff4	1.018E-02	;
}
H2O-H2
{
Diff1	-1.818E+01	;
Diff2	5.044E+00	;
Diff3	-4.377E-01	;
Diff4	1.888E-02	;
}
H2O-O
{
Diff1	-1.907E+01	;
Diff2	4.989E+00	;
Diff3	-4.193E-01	;
Diff4	1.762E-02	;
}
H2O-O2
{
Diff1	-2.030E+01	;
Diff2	5.168E+00	;
Diff3	-4.261E-01	;
Diff4	1.725E-02	;
}
H2O-OH
{
Diff1	-1.908E+01	;
Diff2	4.990E+00	;
Diff3	-4.194E-01	;
Diff4	1.763E-02	;
}
H2O-H2O
{
Diff1	-1.180E+01	;
Diff2	8.888E-01	;
Diff3	2.462E-01	;
Diff4	-1.607E-02	;
}
N2-AR
{
Diff1	-1.648E+01	;
Diff2	3.837E+00	;
Diff3	-2.876E-01	;
Diff4	1.264E-02	;
}
N2-HE
{
Diff1	-1.069E+01	;
Diff2	2.064E+00	;
Diff3	-5.852E-02	;
Diff4	2.778E-03	;
}
N2-H
{
Diff1	-1.712E+01	;
Diff2	4.833E+00	;
Diff3	-4.206E-01	;
Diff4	1.855E-02	;
}
N2-H2
{
Diff1	-1.266E+01	;
Diff2	2.898E+00	;
Diff3	-1.700E-01	;
Diff4	7.739E-03	;
}
N2-O
{
Diff1	-1.475E+01	;
Diff2	3.361E+00	;
Diff3	-2.285E-01	;
Diff4	1.020E-02	;
}
N2-O2
{
Diff1	-1.579E+01	;
Diff2	3.589E+00	;
Diff3	-2.569E-01	;
Diff4	1.137E-02	;
}
N2-OH
{
Diff1	-1.474E+01	;
Diff2	3.348E+00	;
Diff3	-2.267E-01	;
Diff4	1.012E-02	;
}
N2-H2O
{
Diff1	-2.024E+01	;
Diff2	5.167E+00	;
Diff3	-4.293E-01	;
Diff4	1.752E-02	;
}
N2-N2
{
Diff1	-1.547E+01	;
Diff2	3.461E+00	;
Diff3	-2.401E-01	;
Diff4	1.064E-02	;
}
HO2-AR
{
Diff1	-1.678E+01	;
Diff2	3.944E+00	;
Diff3	-3.010E-01	;
Diff4	1.320E-02	;
}
HO2-HE
{
Diff1	-1.086E+01	;
Diff2	2.156E+00	;
Diff3	-7.177E-02	;
Diff4	3.413E-03	;
}
HO2-H
{
Diff1	-1.762E+01	;
Diff2	5.052E+00	;
Diff3	-4.496E-01	;
Diff4	1.984E-02	;
}
HO2-H2
{
Diff1	-1.271E+01	;
Diff2	2.931E+00	;
Diff3	-1.742E-01	;
Diff4	7.911E-03	;
}
HO2-O
{
Diff1	-1.514E+01	;
Diff2	3.523E+00	;
Diff3	-2.502E-01	;
Diff4	1.117E-02	;
}
HO2-O2
{
Diff1	-1.606E+01	;
Diff2	3.688E+00	;
Diff3	-2.691E-01	;
Diff4	1.188E-02	;
}
HO2-OH
{
Diff1	-1.512E+01	;
Diff2	3.508E+00	;
Diff3	-2.481E-01	;
Diff4	1.107E-02	;
}
HO2-H2O
{
Diff1	-1.969E+01	;
Diff2	4.975E+00	;
Diff3	-4.063E-01	;
Diff4	1.660E-02	;
}
HO2-N2
{
Diff1	-1.580E+01	;
Diff2	3.591E+00	;
Diff3	-2.571E-01	;
Diff4	1.138E-02	;
}
HO2-HO2
{
Diff1	-1.607E+01	;
Diff2	3.688E+00	;
Diff3	-2.691E-01	;
Diff4	1.188E-02	;
}
H2O2-AR
{
Diff1	-1.678E+01	;
Diff2	3.942E+00	;
Diff3	-3.007E-01	;
Diff4	1.319E-02	;
}
H2O2-HE
{
Diff1	-1.086E+01	;
Diff2	2.156E+00	;
Diff3	-7.177E-02	;
Diff4	3.413E-03	;
}
H2O2-H
{
Diff1	-1.763E+01	;
Diff2	5.056E+00	;
Diff3	-4.501E-01	;
Diff4	1.986E-02	;
}
H2O2-H2
{
Diff1	-1.272E+01	;
Diff2	2.932E+00	;
Diff3	-1.744E-01	;
Diff4	7.920E-03	;
}
H2O2-O
{
Diff1	-1.516E+01	;
Diff2	3.531E+00	;
Diff3	-2.513E-01	;
Diff4	1.122E-02	;
}
H2O2-O2
{
Diff1	-1.607E+01	;
Diff2	3.689E+00	;
Diff3	-2.692E-01	;
Diff4	1.188E-02	;
}
H2O2-OH
{
Diff1	-1.514E+01	;
Diff2	3.515E+00	;
Diff3	-2.491E-01	;
Diff4	1.112E-02	;
}
H2O2-H2O
{
Diff1	-1.968E+01	;
Diff2	4.965E+00	;
Diff3	-4.047E-01	;
Diff4	1.653E-02	;
}
H2O2-N2
{
Diff1	-1.581E+01	;
Diff2	3.592E+00	;
Diff3	-2.573E-01	;
Diff4	1.139E-02	;
}
H2O2-HO2
{
Diff1	-1.607E+01	;
Diff2	3.688E+00	;
Diff3	-2.691E-01	;
Diff4	1.188E-02	;
}
H2O2-H2O2
{
Diff1	-1.608E+01	;
Diff2	3.688E+00	;
Diff3	-2.691E-01	;
Diff4	1.188E-02	;
}
CO-AR
{
Diff1	-1.651E+01	;
Diff2	3.842E+00	;
Diff3	-2.882E-01	;
Diff4	1.267E-02	;
}
CO-HE
{
Diff1	-1.071E+01	;
Diff2	2.068E+00	;
Diff3	-5.914E-02	;
Diff4	2.809E-03	;
}
CO-H
{
Diff1	-1.719E+01	;
Diff2	4.859E+00	;
Diff3	-4.241E-01	;
Diff4	1.871E-02	;
}
CO-H2
{
Diff1	-1.268E+01	;
Diff2	2.903E+00	;
Diff3	-1.708E-01	;
Diff4	7.771E-03	;
}
CO-O
{
Diff1	-1.478E+01	;
Diff2	3.371E+00	;
Diff3	-2.299E-01	;
Diff4	1.026E-02	;
}
CO-O2
{
Diff1	-1.582E+01	;
Diff2	3.599E+00	;
Diff3	-2.582E-01	;
Diff4	1.143E-02	;
}
CO-OH
{
Diff1	-1.477E+01	;
Diff2	3.358E+00	;
Diff3	-2.280E-01	;
Diff4	1.017E-02	;
}
CO-H2O
{
Diff1	-2.031E+01	;
Diff2	5.186E+00	;
Diff3	-4.314E-01	;
Diff4	1.760E-02	;
}
CO-N2
{
Diff1	-1.549E+01	;
Diff2	3.467E+00	;
Diff3	-2.409E-01	;
Diff4	1.068E-02	;
}
CO-HO2
{
Diff1	-1.583E+01	;
Diff2	3.601E+00	;
Diff3	-2.584E-01	;
Diff4	1.144E-02	;
}
CO-H2O2
{
Diff1	-1.584E+01	;
Diff2	3.602E+00	;
Diff3	-2.586E-01	;
Diff4	1.145E-02	;
}
CO-CO
{
Diff1	-1.551E+01	;
Diff2	3.473E+00	;
Diff3	-2.416E-01	;
Diff4	1.071E-02	;
}
CO2-AR
{
Diff1	-1.931E+01	;
Diff2	4.757E+00	;
Diff3	-3.962E-01	;
Diff4	1.690E-02	;
}
CO2-HE
{
Diff1	-1.093E+01	;
Diff2	2.075E+00	;
Diff3	-5.520E-02	;
Diff4	2.404E-03	;
}
CO2-H
{
Diff1	-1.725E+01	;
Diff2	4.567E+00	;
Diff3	-3.509E-01	;
Diff4	1.403E-02	;
}
CO2-H2
{
Diff1	-1.565E+01	;
Diff2	4.026E+00	;
Diff3	-3.181E-01	;
Diff4	1.422E-02	;
}
CO2-O
{
Diff1	-1.794E+01	;
Diff2	4.490E+00	;
Diff3	-3.698E-01	;
Diff4	1.609E-02	;
}
CO2-O2
{
Diff1	-1.869E+01	;
Diff2	4.566E+00	;
Diff3	-3.755E-01	;
Diff4	1.617E-02	;
}
CO2-OH
{
Diff1	-1.792E+01	;
Diff2	4.476E+00	;
Diff3	-3.680E-01	;
Diff4	1.602E-02	;
}
CO2-H2O
{
Diff1	-1.925E+01	;
Diff2	4.357E+00	;
Diff3	-2.836E-01	;
Diff4	9.647E-03	;
}
CO2-N2
{
Diff1	-1.850E+01	;
Diff2	4.510E+00	;
Diff3	-3.699E-01	;
Diff4	1.601E-02	;
}
CO2-HO2
{
Diff1	-1.869E+01	;
Diff2	4.564E+00	;
Diff3	-3.753E-01	;
Diff4	1.617E-02	;
}
CO2-H2O2
{
Diff1	-1.869E+01	;
Diff2	4.563E+00	;
Diff3	-3.751E-01	;
Diff4	1.616E-02	;
}
CO2-CO
{
Diff1	-1.853E+01	;
Diff2	4.517E+00	;
Diff3	-3.708E-01	;
Diff4	1.604E-02	;
}
CO2-CO2
{
Diff1	-2.075E+01	;
Diff2	5.126E+00	;
Diff3	-4.300E-01	;
Diff4	1.780E-02	;
}
CH2O-AR
{
Diff1	-2.072E+01	;
Diff2	5.195E+00	;
Diff3	-4.353E-01	;
Diff4	1.789E-02	;
}
CH2O-HE
{
Diff1	-1.381E+01	;
Diff2	3.275E+00	;
Diff3	-2.207E-01	;
Diff4	1.001E-02	;
}
CH2O-H
{
Diff1	-1.539E+01	;
Diff2	3.565E+00	;
Diff3	-1.868E-01	;
Diff4	5.537E-03	;
}
CH2O-H2
{
Diff1	-1.748E+01	;
Diff2	4.673E+00	;
Diff3	-3.935E-01	;
Diff4	1.711E-02	;
}
CH2O-O
{
Diff1	-1.915E+01	;
Diff2	4.865E+00	;
Diff3	-4.039E-01	;
Diff4	1.697E-02	;
}
CH2O-O2
{
Diff1	-2.033E+01	;
Diff2	5.114E+00	;
Diff3	-4.320E-01	;
Diff4	1.803E-02	;
}
CH2O-OH
{
Diff1	-1.918E+01	;
Diff2	4.872E+00	;
Diff3	-4.052E-01	;
Diff4	1.704E-02	;
}
CH2O-H2O
{
Diff1	-1.757E+01	;
Diff2	3.509E+00	;
Diff3	-1.496E-01	;
Diff4	2.962E-03	;
}
CH2O-N2
{
Diff1	-2.007E+01	;
Diff2	5.032E+00	;
Diff3	-4.235E-01	;
Diff4	1.775E-02	;
}
CH2O-HO2
{
Diff1	-2.033E+01	;
Diff2	5.114E+00	;
Diff3	-4.319E-01	;
Diff4	1.803E-02	;
}
CH2O-H2O2
{
Diff1	-2.034E+01	;
Diff2	5.113E+00	;
Diff3	-4.318E-01	;
Diff4	1.802E-02	;
}
CH2O-CO
{
Diff1	-2.010E+01	;
Diff2	5.037E+00	;
Diff3	-4.240E-01	;
Diff4	1.777E-02	;
}
CH2O-CO2
{
Diff1	-2.106E+01	;
Diff2	5.066E+00	;
Diff3	-3.967E-01	;
Diff4	1.537E-02	;
}
CH2O-CH2O
{
Diff1	-1.887E+01	;
Diff2	3.923E+00	;
Diff3	-2.116E-01	;
Diff4	5.939E-03	;
}
HCO-AR
{
Diff1	-2.070E+01	;
Diff2	5.191E+00	;
Diff3	-4.347E-01	;
Diff4	1.786E-02	;
}
HCO-HE
{
Diff1	-1.380E+01	;
Diff2	3.270E+00	;
Diff3	-2.200E-01	;
Diff4	9.975E-03	;
}
HCO-H
{
Diff1	-1.541E+01	;
Diff2	3.572E+00	;
Diff3	-1.879E-01	;
Diff4	5.592E-03	;
}
HCO-H2
{
Diff1	-1.747E+01	;
Diff2	4.671E+00	;
Diff3	-3.932E-01	;
Diff4	1.710E-02	;
}
HCO-O
{
Diff1	-1.915E+01	;
Diff2	4.869E+00	;
Diff3	-4.046E-01	;
Diff4	1.701E-02	;
}
HCO-O2
{
Diff1	-2.032E+01	;
Diff2	5.114E+00	;
Diff3	-4.319E-01	;
Diff4	1.803E-02	;
}
HCO-OH
{
Diff1	-1.918E+01	;
Diff2	4.876E+00	;
Diff3	-4.058E-01	;
Diff4	1.708E-02	;
}
HCO-H2O
{
Diff1	-1.757E+01	;
Diff2	3.511E+00	;
Diff3	-1.498E-01	;
Diff4	2.967E-03	;
}
HCO-N2
{
Diff1	-2.007E+01	;
Diff2	5.033E+00	;
Diff3	-4.236E-01	;
Diff4	1.775E-02	;
}
HCO-HO2
{
Diff1	-2.032E+01	;
Diff2	5.113E+00	;
Diff3	-4.318E-01	;
Diff4	1.802E-02	;
}
HCO-H2O2
{
Diff1	-2.033E+01	;
Diff2	5.111E+00	;
Diff3	-4.316E-01	;
Diff4	1.801E-02	;
}
HCO-CO
{
Diff1	-2.009E+01	;
Diff2	5.038E+00	;
Diff3	-4.241E-01	;
Diff4	1.777E-02	;
}
HCO-CO2
{
Diff1	-2.103E+01	;
Diff2	5.059E+00	;
Diff3	-3.956E-01	;
Diff4	1.531E-02	;
}
HCO-CH2O
{
Diff1	-1.886E+01	;
Diff2	3.923E+00	;
Diff3	-2.116E-01	;
Diff4	5.939E-03	;
}
HCO-HCO
{
Diff1	-1.886E+01	;
Diff2	3.923E+00	;
Diff3	-2.116E-01	;
Diff4	5.939E-03	;
}
CH3OH-AR
{
Diff1	-2.066E+01	;
Diff2	5.166E+00	;
Diff3	-4.322E-01	;
Diff4	1.778E-02	;
}
CH3OH-HE
{
Diff1	-1.337E+01	;
Diff2	3.088E+00	;
Diff3	-1.955E-01	;
Diff4	8.872E-03	;
}
CH3OH-H
{
Diff1	-1.545E+01	;
Diff2	3.598E+00	;
Diff3	-1.925E-01	;
Diff4	5.844E-03	;
}
CH3OH-H2
{
Diff1	-1.784E+01	;
Diff2	4.831E+00	;
Diff3	-4.170E-01	;
Diff4	1.826E-02	;
}
CH3OH-O
{
Diff1	-1.907E+01	;
Diff2	4.830E+00	;
Diff3	-3.998E-01	;
Diff4	1.681E-02	;
}
CH3OH-O2
{
Diff1	-2.029E+01	;
Diff2	5.097E+00	;
Diff3	-4.308E-01	;
Diff4	1.801E-02	;
}
CH3OH-OH
{
Diff1	-1.910E+01	;
Diff2	4.837E+00	;
Diff3	-4.010E-01	;
Diff4	1.687E-02	;
}
CH3OH-H2O
{
Diff1	-1.783E+01	;
Diff2	3.623E+00	;
Diff3	-1.669E-01	;
Diff4	3.814E-03	;
}
CH3OH-N2
{
Diff1	-2.000E+01	;
Diff2	5.000E+00	;
Diff3	-4.200E-01	;
Diff4	1.762E-02	;
}
CH3OH-HO2
{
Diff1	-2.030E+01	;
Diff2	5.098E+00	;
Diff3	-4.308E-01	;
Diff4	1.802E-02	;
}
CH3OH-H2O2
{
Diff1	-2.030E+01	;
Diff2	5.098E+00	;
Diff3	-4.308E-01	;
Diff4	1.802E-02	;
}
CH3OH-CO
{
Diff1	-2.002E+01	;
Diff2	5.006E+00	;
Diff3	-4.206E-01	;
Diff4	1.765E-02	;
}
CH3OH-CO2
{
Diff1	-2.112E+01	;
Diff2	5.089E+00	;
Diff3	-4.011E-01	;
Diff4	1.561E-02	;
}
CH3OH-CH2O
{
Diff1	-1.912E+01	;
Diff2	4.029E+00	;
Diff3	-2.275E-01	;
Diff4	6.709E-03	;
}
CH3OH-HCO
{
Diff1	-1.911E+01	;
Diff2	4.029E+00	;
Diff3	-2.274E-01	;
Diff4	6.707E-03	;
}
CH3OH-CH3OH
{
Diff1	-1.935E+01	;
Diff2	4.127E+00	;
Diff3	-2.423E-01	;
Diff4	7.438E-03	;
}
CH2OH-AR
{
Diff1	-2.043E+01	;
Diff2	5.116E+00	;
Diff3	-4.302E-01	;
Diff4	1.787E-02	;
}
CH2OH-HE
{
Diff1	-1.316E+01	;
Diff2	3.003E+00	;
Diff3	-1.844E-01	;
Diff4	8.393E-03	;
}
CH2OH-H
{
Diff1	-1.561E+01	;
Diff2	3.698E+00	;
Diff3	-2.103E-01	;
Diff4	6.792E-03	;
}
CH2OH-H2
{
Diff1	-1.798E+01	;
Diff2	4.905E+00	;
Diff3	-4.293E-01	;
Diff4	1.891E-02	;
}
CH2OH-O
{
Diff1	-1.878E+01	;
Diff2	4.746E+00	;
Diff3	-3.924E-01	;
Diff4	1.664E-02	;
}
CH2OH-O2
{
Diff1	-2.016E+01	;
Diff2	5.064E+00	;
Diff3	-4.282E-01	;
Diff4	1.797E-02	;
}
CH2OH-OH
{
Diff1	-1.880E+01	;
Diff2	4.748E+00	;
Diff3	-3.930E-01	;
Diff4	1.667E-02	;
}
CH2OH-H2O
{
Diff1	-1.620E+01	;
Diff2	2.843E+00	;
Diff3	-5.104E-02	;
Diff4	-1.708E-03	;
}
CH2OH-N2
{
Diff1	-2.000E+01	;
Diff2	5.022E+00	;
Diff3	-4.253E-01	;
Diff4	1.796E-02	;
}
CH2OH-HO2
{
Diff1	-1.994E+01	;
Diff2	4.989E+00	;
Diff3	-4.201E-01	;
Diff4	1.769E-02	;
}
CH2OH-H2O2
{
Diff1	-1.995E+01	;
Diff2	4.989E+00	;
Diff3	-4.200E-01	;
Diff4	1.768E-02	;
}
CH2OH-CO
{
Diff1	-2.003E+01	;
Diff2	5.029E+00	;
Diff3	-4.259E-01	;
Diff4	1.797E-02	;
}
CH2OH-CO2
{
Diff1	-2.111E+01	;
Diff2	5.115E+00	;
Diff3	-4.073E-01	;
Diff4	1.599E-02	;
}
CH2OH-CH2O
{
Diff1	-1.983E+01	;
Diff2	4.379E+00	;
Diff3	-2.815E-01	;
Diff4	9.374E-03	;
}
CH2OH-HCO
{
Diff1	-1.982E+01	;
Diff2	4.379E+00	;
Diff3	-2.814E-01	;
Diff4	9.371E-03	;
}
CH2OH-CH3OH
{
Diff1	-1.999E+01	;
Diff2	4.450E+00	;
Diff3	-2.925E-01	;
Diff4	9.925E-03	;
}
CH2OH-CH2OH
{
Diff1	-1.906E+01	;
Diff2	4.049E+00	;
Diff3	-2.360E-01	;
Diff4	7.308E-03	;
}
CH3O-AR
{
Diff1	-2.043E+01	;
Diff2	5.116E+00	;
Diff3	-4.302E-01	;
Diff4	1.787E-02	;
}
CH3O-HE
{
Diff1	-1.316E+01	;
Diff2	3.003E+00	;
Diff3	-1.844E-01	;
Diff4	8.393E-03	;
}
CH3O-H
{
Diff1	-1.561E+01	;
Diff2	3.698E+00	;
Diff3	-2.103E-01	;
Diff4	6.792E-03	;
}
CH3O-H2
{
Diff1	-1.798E+01	;
Diff2	4.905E+00	;
Diff3	-4.293E-01	;
Diff4	1.891E-02	;
}
CH3O-O
{
Diff1	-1.878E+01	;
Diff2	4.746E+00	;
Diff3	-3.924E-01	;
Diff4	1.664E-02	;
}
CH3O-O2
{
Diff1	-2.016E+01	;
Diff2	5.064E+00	;
Diff3	-4.282E-01	;
Diff4	1.797E-02	;
}
CH3O-OH
{
Diff1	-1.880E+01	;
Diff2	4.748E+00	;
Diff3	-3.930E-01	;
Diff4	1.667E-02	;
}
CH3O-H2O
{
Diff1	-1.620E+01	;
Diff2	2.843E+00	;
Diff3	-5.104E-02	;
Diff4	-1.708E-03	;
}
CH3O-N2
{
Diff1	-2.000E+01	;
Diff2	5.022E+00	;
Diff3	-4.253E-01	;
Diff4	1.796E-02	;
}
CH3O-HO2
{
Diff1	-1.994E+01	;
Diff2	4.989E+00	;
Diff3	-4.201E-01	;
Diff4	1.769E-02	;
}
CH3O-H2O2
{
Diff1	-1.995E+01	;
Diff2	4.989E+00	;
Diff3	-4.200E-01	;
Diff4	1.768E-02	;
}
CH3O-CO
{
Diff1	-2.003E+01	;
Diff2	5.029E+00	;
Diff3	-4.259E-01	;
Diff4	1.797E-02	;
}
CH3O-CO2
{
Diff1	-2.111E+01	;
Diff2	5.115E+00	;
Diff3	-4.073E-01	;
Diff4	1.599E-02	;
}
CH3O-CH2O
{
Diff1	-1.983E+01	;
Diff2	4.379E+00	;
Diff3	-2.815E-01	;
Diff4	9.374E-03	;
}
CH3O-HCO
{
Diff1	-1.982E+01	;
Diff2	4.379E+00	;
Diff3	-2.814E-01	;
Diff4	9.371E-03	;
}
CH3O-CH3OH
{
Diff1	-1.999E+01	;
Diff2	4.450E+00	;
Diff3	-2.925E-01	;
Diff4	9.925E-03	;
}
CH3O-CH2OH
{
Diff1	-1.906E+01	;
Diff2	4.049E+00	;
Diff3	-2.360E-01	;
Diff4	7.308E-03	;
}
CH3O-CH3O
{
Diff1	-1.906E+01	;
Diff2	4.049E+00	;
Diff3	-2.360E-01	;
Diff4	7.308E-03	;
}
CH3O2-AR
{
Diff1	-2.073E+01	;
Diff2	5.154E+00	;
Diff3	-4.304E-01	;
Diff4	1.769E-02	;
}
CH3O2-HE
{
Diff1	-1.346E+01	;
Diff2	3.120E+00	;
Diff3	-2.000E-01	;
Diff4	9.083E-03	;
}
CH3O2-H
{
Diff1	-1.530E+01	;
Diff2	3.526E+00	;
Diff3	-1.816E-01	;
Diff4	5.310E-03	;
}
CH3O2-H2
{
Diff1	-1.793E+01	;
Diff2	4.864E+00	;
Diff3	-4.213E-01	;
Diff4	1.845E-02	;
}
CH3O2-O
{
Diff1	-1.905E+01	;
Diff2	4.786E+00	;
Diff3	-3.918E-01	;
Diff4	1.636E-02	;
}
CH3O2-O2
{
Diff1	-2.031E+01	;
Diff2	5.064E+00	;
Diff3	-4.255E-01	;
Diff4	1.774E-02	;
}
CH3O2-OH
{
Diff1	-1.909E+01	;
Diff2	4.793E+00	;
Diff3	-3.931E-01	;
Diff4	1.644E-02	;
}
CH3O2-H2O
{
Diff1	-1.783E+01	;
Diff2	3.600E+00	;
Diff3	-1.645E-01	;
Diff4	3.755E-03	;
}
CH3O2-N2
{
Diff1	-2.001E+01	;
Diff2	4.964E+00	;
Diff3	-4.142E-01	;
Diff4	1.732E-02	;
}
CH3O2-HO2
{
Diff1	-2.033E+01	;
Diff2	5.069E+00	;
Diff3	-4.262E-01	;
Diff4	1.778E-02	;
}
CH3O2-H2O2
{
Diff1	-2.034E+01	;
Diff2	5.073E+00	;
Diff3	-4.268E-01	;
Diff4	1.781E-02	;
}
CH3O2-CO
{
Diff1	-2.003E+01	;
Diff2	4.970E+00	;
Diff3	-4.148E-01	;
Diff4	1.734E-02	;
}
CH3O2-CO2
{
Diff1	-2.129E+01	;
Diff2	5.120E+00	;
Diff3	-4.055E-01	;
Diff4	1.582E-02	;
}
CH3O2-CH2O
{
Diff1	-1.917E+01	;
Diff2	4.015E+00	;
Diff3	-2.257E-01	;
Diff4	6.644E-03	;
}
CH3O2-HCO
{
Diff1	-1.915E+01	;
Diff2	4.013E+00	;
Diff3	-2.255E-01	;
Diff4	6.634E-03	;
}
CH3O2-CH3OH
{
Diff1	-1.940E+01	;
Diff2	4.115E+00	;
Diff3	-2.408E-01	;
Diff4	7.377E-03	;
}
CH3O2-CH2OH
{
Diff1	-2.002E+01	;
Diff2	4.428E+00	;
Diff3	-2.895E-01	;
Diff4	9.792E-03	;
}
CH3O2-CH3O
{
Diff1	-2.002E+01	;
Diff2	4.428E+00	;
Diff3	-2.895E-01	;
Diff4	9.792E-03	;
}
CH3O2-CH3O2
{
Diff1	-1.954E+01	;
Diff2	4.127E+00	;
Diff3	-2.423E-01	;
Diff4	7.438E-03	;
}
CH4-AR
{
Diff1	-1.773E+01	;
Diff2	4.348E+00	;
Diff3	-3.515E-01	;
Diff4	1.531E-02	;
}
CH4-HE
{
Diff1	-1.101E+01	;
Diff2	2.182E+00	;
Diff3	-7.401E-02	;
Diff4	3.452E-03	;
}
CH4-H
{
Diff1	-1.790E+01	;
Diff2	5.054E+00	;
Diff3	-4.413E-01	;
Diff4	1.911E-02	;
}
CH4-H2
{
Diff1	-1.354E+01	;
Diff2	3.227E+00	;
Diff3	-2.134E-01	;
Diff4	9.645E-03	;
}
CH4-O
{
Diff1	-1.556E+01	;
Diff2	3.684E+00	;
Diff3	-2.687E-01	;
Diff4	1.186E-02	;
}
CH4-O2
{
Diff1	-1.696E+01	;
Diff2	4.074E+00	;
Diff3	-3.183E-01	;
Diff4	1.397E-02	;
}
CH4-OH
{
Diff1	-1.557E+01	;
Diff2	3.679E+00	;
Diff3	-2.680E-01	;
Diff4	1.183E-02	;
}
CH4-H2O
{
Diff1	-2.053E+01	;
Diff2	5.191E+00	;
Diff3	-4.197E-01	;
Diff4	1.662E-02	;
}
CH4-N2
{
Diff1	-1.652E+01	;
Diff2	3.896E+00	;
Diff3	-2.951E-01	;
Diff4	1.296E-02	;
}
CH4-HO2
{
Diff1	-1.698E+01	;
Diff2	4.080E+00	;
Diff3	-3.190E-01	;
Diff4	1.400E-02	;
}
CH4-H2O2
{
Diff1	-1.700E+01	;
Diff2	4.085E+00	;
Diff3	-3.198E-01	;
Diff4	1.403E-02	;
}
CH4-CO
{
Diff1	-1.655E+01	;
Diff2	3.903E+00	;
Diff3	-2.960E-01	;
Diff4	1.300E-02	;
}
CH4-CO2
{
Diff1	-1.921E+01	;
Diff2	4.765E+00	;
Diff3	-3.942E-01	;
Diff4	1.669E-02	;
}
CH4-CH2O
{
Diff1	-2.047E+01	;
Diff2	5.123E+00	;
Diff3	-4.229E-01	;
Diff4	1.722E-02	;
}
CH4-HCO
{
Diff1	-2.049E+01	;
Diff2	5.133E+00	;
Diff3	-4.243E-01	;
Diff4	1.729E-02	;
}
CH4-CH3OH
{
Diff1	-2.040E+01	;
Diff2	5.095E+00	;
Diff3	-4.199E-01	;
Diff4	1.712E-02	;
}
CH4-CH2OH
{
Diff1	-2.034E+01	;
Diff2	5.090E+00	;
Diff3	-4.212E-01	;
Diff4	1.725E-02	;
}
CH4-CH3O
{
Diff1	-2.034E+01	;
Diff2	5.090E+00	;
Diff3	-4.212E-01	;
Diff4	1.725E-02	;
}
CH4-CH3O2
{
Diff1	-2.020E+01	;
Diff2	4.976E+00	;
Diff3	-4.019E-01	;
Diff4	1.623E-02	;
}
CH4-CH4
{
Diff1	-1.760E+01	;
Diff2	4.320E+00	;
Diff3	-3.478E-01	;
Diff4	1.515E-02	;
}
CH3-AR
{
Diff1	-1.780E+01	;
Diff2	4.376E+00	;
Diff3	-3.550E-01	;
Diff4	1.546E-02	;
}
CH3-HE
{
Diff1	-1.105E+01	;
Diff2	2.192E+00	;
Diff3	-7.547E-02	;
Diff4	3.519E-03	;
}
CH3-H
{
Diff1	-1.802E+01	;
Diff2	5.090E+00	;
Diff3	-4.458E-01	;
Diff4	1.929E-02	;
}
CH3-H2
{
Diff1	-1.358E+01	;
Diff2	3.240E+00	;
Diff3	-2.151E-01	;
Diff4	9.715E-03	;
}
CH3-O
{
Diff1	-1.562E+01	;
Diff2	3.704E+00	;
Diff3	-2.712E-01	;
Diff4	1.197E-02	;
}
CH3-O2
{
Diff1	-1.707E+01	;
Diff2	4.120E+00	;
Diff3	-3.243E-01	;
Diff4	1.423E-02	;
}
CH3-OH
{
Diff1	-1.562E+01	;
Diff2	3.700E+00	;
Diff3	-2.707E-01	;
Diff4	1.195E-02	;
}
CH3-H2O
{
Diff1	-2.042E+01	;
Diff2	5.222E+00	;
Diff3	-4.325E-01	;
Diff4	1.752E-02	;
}
CH3-N2
{
Diff1	-1.658E+01	;
Diff2	3.922E+00	;
Diff3	-2.984E-01	;
Diff4	1.310E-02	;
}
CH3-HO2
{
Diff1	-1.709E+01	;
Diff2	4.126E+00	;
Diff3	-3.251E-01	;
Diff4	1.427E-02	;
}
CH3-H2O2
{
Diff1	-1.711E+01	;
Diff2	4.131E+00	;
Diff3	-3.258E-01	;
Diff4	1.430E-02	;
}
CH3-CO
{
Diff1	-1.661E+01	;
Diff2	3.930E+00	;
Diff3	-2.994E-01	;
Diff4	1.314E-02	;
}
CH3-CO2
{
Diff1	-1.923E+01	;
Diff2	4.772E+00	;
Diff3	-3.945E-01	;
Diff4	1.667E-02	;
}
CH3-CH2O
{
Diff1	-2.045E+01	;
Diff2	5.109E+00	;
Diff3	-4.199E-01	;
Diff4	1.705E-02	;
}
CH3-HCO
{
Diff1	-2.047E+01	;
Diff2	5.119E+00	;
Diff3	-4.215E-01	;
Diff4	1.712E-02	;
}
CH3-CH3OH
{
Diff1	-2.039E+01	;
Diff2	5.083E+00	;
Diff3	-4.174E-01	;
Diff4	1.697E-02	;
}
CH3-CH2OH
{
Diff1	-2.013E+01	;
Diff2	5.018E+00	;
Diff3	-4.131E-01	;
Diff4	1.695E-02	;
}
CH3-CH3O
{
Diff1	-2.013E+01	;
Diff2	5.018E+00	;
Diff3	-4.131E-01	;
Diff4	1.695E-02	;
}
CH3-CH3O2
{
Diff1	-2.017E+01	;
Diff2	4.962E+00	;
Diff3	-3.990E-01	;
Diff4	1.606E-02	;
}
CH3-CH4
{
Diff1	-1.766E+01	;
Diff2	4.343E+00	;
Diff3	-3.507E-01	;
Diff4	1.527E-02	;
}
CH3-CH3
{
Diff1	-1.773E+01	;
Diff2	4.368E+00	;
Diff3	-3.537E-01	;
Diff4	1.540E-02	;
}
CH2-AR
{
Diff1	-1.780E+01	;
Diff2	4.386E+00	;
Diff3	-3.562E-01	;
Diff4	1.551E-02	;
}
CH2-HE
{
Diff1	-1.104E+01	;
Diff2	2.193E+00	;
Diff3	-7.551E-02	;
Diff4	3.521E-03	;
}
CH2-H
{
Diff1	-1.799E+01	;
Diff2	5.080E+00	;
Diff3	-4.444E-01	;
Diff4	1.923E-02	;
}
CH2-H2
{
Diff1	-1.356E+01	;
Diff2	3.231E+00	;
Diff3	-2.138E-01	;
Diff4	9.659E-03	;
}
CH2-O
{
Diff1	-1.559E+01	;
Diff2	3.700E+00	;
Diff3	-2.707E-01	;
Diff4	1.195E-02	;
}
CH2-O2
{
Diff1	-1.708E+01	;
Diff2	4.133E+00	;
Diff3	-3.261E-01	;
Diff4	1.431E-02	;
}
CH2-OH
{
Diff1	-1.560E+01	;
Diff2	3.697E+00	;
Diff3	-2.703E-01	;
Diff4	1.193E-02	;
}
CH2-H2O
{
Diff1	-2.041E+01	;
Diff2	5.224E+00	;
Diff3	-4.327E-01	;
Diff4	1.753E-02	;
}
CH2-N2
{
Diff1	-1.659E+01	;
Diff2	3.934E+00	;
Diff3	-2.999E-01	;
Diff4	1.317E-02	;
}
CH2-HO2
{
Diff1	-1.710E+01	;
Diff2	4.139E+00	;
Diff3	-3.269E-01	;
Diff4	1.435E-02	;
}
CH2-H2O2
{
Diff1	-1.712E+01	;
Diff2	4.145E+00	;
Diff3	-3.277E-01	;
Diff4	1.438E-02	;
}
CH2-CO
{
Diff1	-1.662E+01	;
Diff2	3.942E+00	;
Diff3	-3.010E-01	;
Diff4	1.321E-02	;
}
CH2-CO2
{
Diff1	-1.920E+01	;
Diff2	4.769E+00	;
Diff3	-3.938E-01	;
Diff4	1.663E-02	;
}
CH2-CH2O
{
Diff1	-2.038E+01	;
Diff2	5.087E+00	;
Diff3	-4.167E-01	;
Diff4	1.689E-02	;
}
CH2-HCO
{
Diff1	-2.040E+01	;
Diff2	5.098E+00	;
Diff3	-4.183E-01	;
Diff4	1.697E-02	;
}
CH2-CH3OH
{
Diff1	-2.032E+01	;
Diff2	5.062E+00	;
Diff3	-4.142E-01	;
Diff4	1.681E-02	;
}
CH2-CH2OH
{
Diff1	-2.006E+01	;
Diff2	5.000E+00	;
Diff3	-4.103E-01	;
Diff4	1.681E-02	;
}
CH2-CH3O
{
Diff1	-2.006E+01	;
Diff2	5.000E+00	;
Diff3	-4.103E-01	;
Diff4	1.681E-02	;
}
CH2-CH3O2
{
Diff1	-2.010E+01	;
Diff2	4.940E+00	;
Diff3	-3.957E-01	;
Diff4	1.589E-02	;
}
CH2-CH4
{
Diff1	-1.765E+01	;
Diff2	4.345E+00	;
Diff3	-3.509E-01	;
Diff4	1.528E-02	;
}
CH2-CH3
{
Diff1	-1.771E+01	;
Diff2	4.368E+00	;
Diff3	-3.538E-01	;
Diff4	1.540E-02	;
}
CH2-CH2
{
Diff1	-1.770E+01	;
Diff2	4.368E+00	;
Diff3	-3.537E-01	;
Diff4	1.540E-02	;
}
CH2(S)-AR
{
Diff1	-1.780E+01	;
Diff2	4.386E+00	;
Diff3	-3.562E-01	;
Diff4	1.551E-02	;
}
CH2(S)-HE
{
Diff1	-1.104E+01	;
Diff2	2.193E+00	;
Diff3	-7.551E-02	;
Diff4	3.521E-03	;
}
CH2(S)-H
{
Diff1	-1.799E+01	;
Diff2	5.080E+00	;
Diff3	-4.444E-01	;
Diff4	1.923E-02	;
}
CH2(S)-H2
{
Diff1	-1.356E+01	;
Diff2	3.231E+00	;
Diff3	-2.138E-01	;
Diff4	9.659E-03	;
}
CH2(S)-O
{
Diff1	-1.559E+01	;
Diff2	3.700E+00	;
Diff3	-2.707E-01	;
Diff4	1.195E-02	;
}
CH2(S)-O2
{
Diff1	-1.708E+01	;
Diff2	4.133E+00	;
Diff3	-3.261E-01	;
Diff4	1.431E-02	;
}
CH2(S)-OH
{
Diff1	-1.560E+01	;
Diff2	3.697E+00	;
Diff3	-2.703E-01	;
Diff4	1.193E-02	;
}
CH2(S)-H2O
{
Diff1	-2.041E+01	;
Diff2	5.224E+00	;
Diff3	-4.327E-01	;
Diff4	1.753E-02	;
}
CH2(S)-N2
{
Diff1	-1.659E+01	;
Diff2	3.934E+00	;
Diff3	-2.999E-01	;
Diff4	1.317E-02	;
}
CH2(S)-HO2
{
Diff1	-1.710E+01	;
Diff2	4.139E+00	;
Diff3	-3.269E-01	;
Diff4	1.435E-02	;
}
CH2(S)-H2O2
{
Diff1	-1.712E+01	;
Diff2	4.145E+00	;
Diff3	-3.277E-01	;
Diff4	1.438E-02	;
}
CH2(S)-CO
{
Diff1	-1.662E+01	;
Diff2	3.942E+00	;
Diff3	-3.010E-01	;
Diff4	1.321E-02	;
}
CH2(S)-CO2
{
Diff1	-1.920E+01	;
Diff2	4.769E+00	;
Diff3	-3.938E-01	;
Diff4	1.663E-02	;
}
CH2(S)-CH2O
{
Diff1	-2.038E+01	;
Diff2	5.087E+00	;
Diff3	-4.167E-01	;
Diff4	1.689E-02	;
}
CH2(S)-HCO
{
Diff1	-2.040E+01	;
Diff2	5.098E+00	;
Diff3	-4.183E-01	;
Diff4	1.697E-02	;
}
CH2(S)-CH3OH
{
Diff1	-2.032E+01	;
Diff2	5.062E+00	;
Diff3	-4.142E-01	;
Diff4	1.681E-02	;
}
CH2(S)-CH2OH
{
Diff1	-2.006E+01	;
Diff2	5.000E+00	;
Diff3	-4.103E-01	;
Diff4	1.681E-02	;
}
CH2(S)-CH3O
{
Diff1	-2.006E+01	;
Diff2	5.000E+00	;
Diff3	-4.103E-01	;
Diff4	1.681E-02	;
}
CH2(S)-CH3O2
{
Diff1	-2.010E+01	;
Diff2	4.940E+00	;
Diff3	-3.957E-01	;
Diff4	1.589E-02	;
}
CH2(S)-CH4
{
Diff1	-1.765E+01	;
Diff2	4.345E+00	;
Diff3	-3.509E-01	;
Diff4	1.528E-02	;
}
CH2(S)-CH3
{
Diff1	-1.771E+01	;
Diff2	4.368E+00	;
Diff3	-3.538E-01	;
Diff4	1.540E-02	;
}
CH2(S)-CH2
{
Diff1	-1.770E+01	;
Diff2	4.368E+00	;
Diff3	-3.537E-01	;
Diff4	1.540E-02	;
}
CH2(S)-CH2(S)
{
Diff1	-1.770E+01	;
Diff2	4.368E+00	;
Diff3	-3.537E-01	;
Diff4	1.540E-02	;
}
C2H6-AR
{
Diff1	-1.940E+01	;
Diff2	4.768E+00	;
Diff3	-3.974E-01	;
Diff4	1.694E-02	;
}
C2H6-HE
{
Diff1	-1.110E+01	;
Diff2	2.082E+00	;
Diff3	-5.632E-02	;
Diff4	2.460E-03	;
}
C2H6-H
{
Diff1	-1.739E+01	;
Diff2	4.516E+00	;
Diff3	-3.396E-01	;
Diff4	1.332E-02	;
}
C2H6-H2
{
Diff1	-1.611E+01	;
Diff2	4.152E+00	;
Diff3	-3.354E-01	;
Diff4	1.501E-02	;
}
C2H6-O
{
Diff1	-1.801E+01	;
Diff2	4.472E+00	;
Diff3	-3.674E-01	;
Diff4	1.599E-02	;
}
C2H6-O2
{
Diff1	-1.877E+01	;
Diff2	4.573E+00	;
Diff3	-3.764E-01	;
Diff4	1.621E-02	;
}
C2H6-OH
{
Diff1	-1.799E+01	;
Diff2	4.456E+00	;
Diff3	-3.654E-01	;
Diff4	1.590E-02	;
}
C2H6-H2O
{
Diff1	-1.999E+01	;
Diff2	4.690E+00	;
Diff3	-3.375E-01	;
Diff4	1.240E-02	;
}
C2H6-N2
{
Diff1	-1.858E+01	;
Diff2	4.510E+00	;
Diff3	-3.700E-01	;
Diff4	1.601E-02	;
}
C2H6-HO2
{
Diff1	-1.878E+01	;
Diff2	4.572E+00	;
Diff3	-3.763E-01	;
Diff4	1.621E-02	;
}
C2H6-H2O2
{
Diff1	-1.879E+01	;
Diff2	4.572E+00	;
Diff3	-3.763E-01	;
Diff4	1.621E-02	;
}
C2H6-CO
{
Diff1	-1.860E+01	;
Diff2	4.517E+00	;
Diff3	-3.709E-01	;
Diff4	1.604E-02	;
}
C2H6-CO2
{
Diff1	-2.076E+01	;
Diff2	5.106E+00	;
Diff3	-4.265E-01	;
Diff4	1.761E-02	;
}
C2H6-CH2O
{
Diff1	-2.117E+01	;
Diff2	5.080E+00	;
Diff3	-3.983E-01	;
Diff4	1.542E-02	;
}
C2H6-HCO
{
Diff1	-2.116E+01	;
Diff2	5.078E+00	;
Diff3	-3.978E-01	;
Diff4	1.540E-02	;
}
C2H6-CH3OH
{
Diff1	-2.120E+01	;
Diff2	5.095E+00	;
Diff3	-4.014E-01	;
Diff4	1.561E-02	;
}
C2H6-CH2OH
{
Diff1	-2.128E+01	;
Diff2	5.180E+00	;
Diff3	-4.186E-01	;
Diff4	1.659E-02	;
}
C2H6-CH3O
{
Diff1	-2.128E+01	;
Diff2	5.180E+00	;
Diff3	-4.186E-01	;
Diff4	1.659E-02	;
}
C2H6-CH3O2
{
Diff1	-2.122E+01	;
Diff2	5.063E+00	;
Diff3	-3.967E-01	;
Diff4	1.538E-02	;
}
C2H6-CH4
{
Diff1	-1.934E+01	;
Diff2	4.782E+00	;
Diff3	-3.969E-01	;
Diff4	1.683E-02	;
}
C2H6-CH3
{
Diff1	-1.939E+01	;
Diff2	4.798E+00	;
Diff3	-3.984E-01	;
Diff4	1.687E-02	;
}
C2H6-CH2
{
Diff1	-1.936E+01	;
Diff2	4.794E+00	;
Diff3	-3.977E-01	;
Diff4	1.682E-02	;
}
C2H6-CH2(S)
{
Diff1	-1.936E+01	;
Diff2	4.794E+00	;
Diff3	-3.977E-01	;
Diff4	1.682E-02	;
}
C2H6-C2H6
{
Diff1	-2.089E+01	;
Diff2	5.134E+00	;
Diff3	-4.304E-01	;
Diff4	1.779E-02	;
}
C2H5O2-AR
{
Diff1	-2.071E+01	;
Diff2	5.030E+00	;
Diff3	-4.125E-01	;
Diff4	1.684E-02	;
}
C2H5O2-HE
{
Diff1	-1.397E+01	;
Diff2	3.241E+00	;
Diff3	-2.173E-01	;
Diff4	9.910E-03	;
}
C2H5O2-H
{
Diff1	-1.421E+01	;
Diff2	2.908E+00	;
Diff3	-8.856E-02	;
Diff4	7.213E-04	;
}
C2H5O2-H2
{
Diff1	-1.864E+01	;
Diff2	5.062E+00	;
Diff3	-4.478E-01	;
Diff4	1.963E-02	;
}
C2H5O2-O
{
Diff1	-1.914E+01	;
Diff2	4.700E+00	;
Diff3	-3.773E-01	;
Diff4	1.559E-02	;
}
C2H5O2-O2
{
Diff1	-2.031E+01	;
Diff2	4.950E+00	;
Diff3	-4.083E-01	;
Diff4	1.689E-02	;
}
C2H5O2-OH
{
Diff1	-1.918E+01	;
Diff2	4.707E+00	;
Diff3	-3.787E-01	;
Diff4	1.567E-02	;
}
C2H5O2-H2O
{
Diff1	-1.812E+01	;
Diff2	3.625E+00	;
Diff3	-1.704E-01	;
Diff4	4.167E-03	;
}
C2H5O2-N2
{
Diff1	-2.008E+01	;
Diff2	4.882E+00	;
Diff3	-4.016E-01	;
Diff4	1.668E-02	;
}
C2H5O2-HO2
{
Diff1	-2.034E+01	;
Diff2	4.958E+00	;
Diff3	-4.095E-01	;
Diff4	1.695E-02	;
}
C2H5O2-H2O2
{
Diff1	-2.036E+01	;
Diff2	4.965E+00	;
Diff3	-4.107E-01	;
Diff4	1.701E-02	;
}
C2H5O2-CO
{
Diff1	-2.007E+01	;
Diff2	4.873E+00	;
Diff3	-4.004E-01	;
Diff4	1.663E-02	;
}
C2H5O2-CO2
{
Diff1	-2.142E+01	;
Diff2	5.072E+00	;
Diff3	-3.994E-01	;
Diff4	1.555E-02	;
}
C2H5O2-CH2O
{
Diff1	-1.946E+01	;
Diff2	4.041E+00	;
Diff3	-2.307E-01	;
Diff4	6.936E-03	;
}
C2H5O2-HCO
{
Diff1	-1.944E+01	;
Diff2	4.037E+00	;
Diff3	-2.302E-01	;
Diff4	6.917E-03	;
}
C2H5O2-CH3OH
{
Diff1	-1.966E+01	;
Diff2	4.127E+00	;
Diff3	-2.437E-01	;
Diff4	7.566E-03	;
}
C2H5O2-CH2OH
{
Diff1	-2.015E+01	;
Diff2	4.382E+00	;
Diff3	-2.839E-01	;
Diff4	9.576E-03	;
}
C2H5O2-CH3O
{
Diff1	-2.015E+01	;
Diff2	4.382E+00	;
Diff3	-2.839E-01	;
Diff4	9.576E-03	;
}
C2H5O2-CH3O2
{
Diff1	-1.988E+01	;
Diff2	4.167E+00	;
Diff3	-2.488E-01	;
Diff4	7.776E-03	;
}
C2H5O2-CH4
{
Diff1	-1.994E+01	;
Diff2	4.757E+00	;
Diff3	-3.695E-01	;
Diff4	1.465E-02	;
}
C2H5O2-CH3
{
Diff1	-1.999E+01	;
Diff2	4.779E+00	;
Diff3	-3.722E-01	;
Diff4	1.476E-02	;
}
C2H5O2-CH2
{
Diff1	-1.991E+01	;
Diff2	4.755E+00	;
Diff3	-3.687E-01	;
Diff4	1.459E-02	;
}
C2H5O2-CH2(S)
{
Diff1	-1.991E+01	;
Diff2	4.755E+00	;
Diff3	-3.687E-01	;
Diff4	1.459E-02	;
}
C2H5O2-C2H6
{
Diff1	-2.125E+01	;
Diff2	4.982E+00	;
Diff3	-3.856E-01	;
Diff4	1.488E-02	;
}
C2H5O2-C2H5O2
{
Diff1	-2.030E+01	;
Diff2	4.246E+00	;
Diff3	-2.605E-01	;
Diff4	8.331E-03	;
}
C2H5-AR
{
Diff1	-1.939E+01	;
Diff2	4.768E+00	;
Diff3	-3.973E-01	;
Diff4	1.694E-02	;
}
C2H5-HE
{
Diff1	-1.110E+01	;
Diff2	2.083E+00	;
Diff3	-5.633E-02	;
Diff4	2.460E-03	;
}
C2H5-H
{
Diff1	-1.739E+01	;
Diff2	4.517E+00	;
Diff3	-3.399E-01	;
Diff4	1.334E-02	;
}
C2H5-H2
{
Diff1	-1.610E+01	;
Diff2	4.147E+00	;
Diff3	-3.348E-01	;
Diff4	1.498E-02	;
}
C2H5-O
{
Diff1	-1.798E+01	;
Diff2	4.463E+00	;
Diff3	-3.662E-01	;
Diff4	1.594E-02	;
}
C2H5-O2
{
Diff1	-1.876E+01	;
Diff2	4.572E+00	;
Diff3	-3.763E-01	;
Diff4	1.621E-02	;
}
C2H5-OH
{
Diff1	-1.796E+01	;
Diff2	4.448E+00	;
Diff3	-3.643E-01	;
Diff4	1.586E-02	;
}
C2H5-H2O
{
Diff1	-2.002E+01	;
Diff2	4.706E+00	;
Diff3	-3.398E-01	;
Diff4	1.251E-02	;
}
C2H5-N2
{
Diff1	-1.856E+01	;
Diff2	4.509E+00	;
Diff3	-3.698E-01	;
Diff4	1.600E-02	;
}
C2H5-HO2
{
Diff1	-1.877E+01	;
Diff2	4.572E+00	;
Diff3	-3.763E-01	;
Diff4	1.621E-02	;
}
C2H5-H2O2
{
Diff1	-1.878E+01	;
Diff2	4.571E+00	;
Diff3	-3.762E-01	;
Diff4	1.621E-02	;
}
C2H5-CO
{
Diff1	-1.859E+01	;
Diff2	4.515E+00	;
Diff3	-3.706E-01	;
Diff4	1.604E-02	;
}
C2H5-CO2
{
Diff1	-2.074E+01	;
Diff2	5.102E+00	;
Diff3	-4.258E-01	;
Diff4	1.758E-02	;
}
C2H5-CH2O
{