! **************H2/CO MECHANISM***********************
! M.Goswami, A.A.Konnov, R.J.M.Bastiaans,L.P.H de Goey
! September 2011
!
! 25.01.2012   rev. 01DLR
!              OH(A) chemistry added 
! third body efficiencies separated by blanks

ELEM O N H C AR HE
END

SPECIES
O         O2      N2
H		H2	H2O    OH    H2O2    HO2	
!OH(A)
HE
AR
CO  CO2   HOCO   HCO   CH2O

END

REACTIONS		!BASE M=N2

!H2 REACTIONS

! Cohen and Westberg J. Phys. Chem. Ref Data 12(1983)531****
H+H+M=H2+M                     7.000E+17     -1.0         0.0
 H2/0.0/ N2/0.0/ H/0.0/ H2O/14.3/ CO/3.0/ CO2/3.0/
H+H+H2=H2+H2                   1.000E+17     -0.6         0.0
H+H+N2=H2+N2                   5.400E+18     -1.3         0.0
H+H+H=H2+H                     3.200E+15      0.0         0.0

!Watnatz, Combustion Chemistry, p-197(1984)****
!Konnov, Khim. fiz 23(8)(2004)5-18 (enhanced third body efficiencies)
!Konnov, Combust flame 152(2008)507-528
O+O+M=O2+M                     1.000E+17     -1.0         0.0
 O/28.8/ O2/8.0/ N2/2.0/ H2O/5.0/ 

!Naudet et al. Combust Sci Technol. 164(2001)113-128.****
!Dixon-Lewis et al. Philos Trans R Soc London A 292(1979)45-99 
O+H+M=OH+M                     6.750E+18     -1.0         0.0
 H2O/5.0/

!Srinivasan and Michael Int. J Chem Kinet. 38(2006)211-219****
H2O+M=H+OH+M                   6.06E+27 -3.312  120770.
H2O /0/ H2/3/ N2 /2/ O2 /1.5/ CO2 /4/
H2O+H2O=H+OH+H2O       1.E+26  -2.44 120160.

!Troe , Proc combust inst. 28(2000)1463-1469)****
!Michael et al. J Phys Chem. A 106(2002)5297-5313
H+O2(+M)=HO2(+M)               4.660E+12      0.44        0.0
    LOW /5.70E+19 -1.4 0.0/
    TROE /0.5 100000 10/
 H2O/0.0/ O2/0.0/ H2/1.5/ CO2/2.4/ HE/1.0/ AR/0.0/

!Troe , Proc combust inst. 28(2000)1463-1469)****
H+O2(+AR)=HO2(+AR)             4.660E+12      0.44        0.0
    LOW /7.430E+18 -1.2  0.0/
    TROE /0.5 10 100000/

!Troe , Proc combust inst. 28(2000)1463-1469)****
!Michael et al. J Phys Chem. A 106(2002)5297-5313
H+O2(+O2)=HO2(+O2)             4.660E+12      0.44        0.0
    LOW /5.690E+18 -1.094 0.0/
    TROE /0.5 100000 10/   
!Bates et al. phys chem. chem. Phys. 3(2001)2337-2342****    
H+O2(+H2O)=HO2(+H2O)           9.060E+12      0.2         0.0
    LOW /3.670E+19 -1.0 0.0/
    TROE /0.8 10 100000/

!Baulch et al. J Phys chem ref data 34 (3) (2005) 757-1397****
!Konnov, Combust flame 152(2008)507-528
OH+OH(+M)=H2O2(+M)             1E+14 -0.37 0.0
    LOW /2.38E+19 -0.8 0. / !2.2E+19 -0.76 0.0/
    TROE /0.5 100000 10/
    H2O/0.0/

!Baulch et al. J Phys chem ref data 34 (3) (2005) 757-1397****
OH+OH(+H2O)=H2O2(+H2O)         1E+14 -0.37 0.
    LOW /1.45E+18 0.0 0.0/
    TROE /0.5 100000 10/

!Baulch et al. J Phys chem ref data 34 (3) (2005) 757-1397****
O+H2=OH+H                      3.82E+12      0.0     7948.0
    DUPLICATE
O+H2=OH+H                      8.79E+14      0.0     19170.0
    DUPLICATE

!Hong et al. Proc. combust inst 33(2011)309-316****
H+O2=OH+O                      1.04E+14     0.0     1.5286E+4   

!Baulch et al. J Phys chem ref data 34 (3) (2005) 757-1397****
H2+OH=H2O+H                    2.140E+08      1.52     3450.0

!Baulch et al. J Phys chem ref data 34 (3) (2005) 757-1397****
OH+OH=H2O+O                    3.34E+04       2.42  -1930. 

!Atkinson et al.  J Phys chem ref data 26(1997) 1329-1499****
HO2+O=OH+O2                    1.630E+13      0.0      -445.0

!Mueller et al.Int. J Chem Kinet. 31 (1999)113-125****
H+HO2=OH+OH                    7.08E+13       0.0       295
H+HO2=H2+O2                    1.66E+13       0.0  823.0

!Baulch et al. J Phys chem ref data 34 (3) (2005) 757-1397****
H+HO2=H2O+O                    1.45E+12       0.0  0.0   

!Karkach et al. J chem phys 110(1999)11918-11927****
H2+O2=OH+OH                    2.040E+12      0.44    69155.0

!Baulch et al. J Phys chem ref data 34 (3) (2005) 757-1397****
HO2+OH=H2O+O2                  2.89E13        0. -500
    DUPLICATE
HO2+OH=H2O+O2                  9.270E+15      0.0     17500.0
    DUPLICATE

!Kappel, Luther and Troe Phys chem. chem. Phys. 4(2002)4392-4398****
HO2+HO2=H2O2+O2                1.030E+14      0.0     11040.0
    DUPLICATE
HO2+HO2=H2O2+O2                1.940E+11      0.0     -1409.0
    DUPLICATE

!Atkinson et al. Atmos chem phys 4(2004)1461-1738****
HO2+HO2+M=H2O2+O2+M            6.84E+14       0. -1950.

!Baulch et al. J Phys chem ref data 34 (3) (2005) 757-1397****
H2O2+H=HO2+H2                  1.700E+12      0.0      3755.0

!Baulch et al. J Phys chem ref data 34 (3) (2005) 757-1397****
H2O2+H=H2O+OH                  1.000E+13      0.0      3575.0

!Tsang and Hampson J Phys chem ref data 15(1986)1087-1279****
H2O2+O=HO2+OH                  9.55E+6    2.0     3970.     

!Hippler et al. J chem phys 103(1995)3510-3516****
H2O2+OH=HO2+H2O                2.000E+12      0.0       427.0
    DUPLICATE
H2O2+OH=HO2+H2O                1.700E+18      0.0     29400.0
    DUPLICATE


!CO REACTIONS

!Troe, J phys chem 1975, 83, 114****
!Westmoreland et al. AIChE J. 32(1986)1971-1979****
CO+O(+M)=CO2(+M)		1.80E+10	0.0	2384
    LOW /1.55E+24 -2.79 4190/
    H2/2.5/ H2O/12/ CO/1.9/ CO2/3.8/ AR/0.87/
!Li et al. Int. J Chem Kinet. 39(3)(2007)109-136****
CO+OH=CO2+H			    2.23E+05	1.90	-1.16E+03 

!Senosiain et al. Int. J Chem Kinet.35(9)(2003)464-474****
CO+OH(+M)=HOCO(+M)		1.20E+07	1.83	-236
    LOW /7.20E+25 -3.85 1550.0/
    TROE/0.6 10.0 100000.0/
    H2/2.5/ H2O/12/ CO/1.9/ CO2/3.8/ AR/0.87/  
!Watnatz, Combustion Chemistry, p-197(1984)****    
CO+O2=CO2+O			    2.50E+12	0.0	47800

!Sun et al. Proc. combustion inst 31(2007)439-446****
CO+HO2=CO2+OH			1.15E+05	2.278	17545 

!Baulch et al. J Phys chem ref data 98 (1994) 59-79****
HCO+M=H+CO+M 		    4.80E+13 0.0 15760 
    H2/2.5/ H2O/6.2/ CO/1.875/ CO2/3.75/ AR/1.0/

!Baulch et al. J Phys chem ref data 34 (3) (2005) 757-1397****
HCO+H=CO+H2 			9.00E+13 	0.0 	0.0
HCO+O=CO+OH 			3.00E+13	0.0	0.0
HCO+O=CO2+H			    3.00E+13	0.0	0.0
HCO+OH=CO+H2O			1.00E+14	0.0	0.0
HCO+O2=CO+HO2			3.00E+10	0.0	0.0	

!Tsang and Hampson J Phys chem ref data 15(1986)1087-1279****
HCO+HO2=CO2+OH+H		3.00E+13	0.0	0.0
HCO+HO2=CO+H2O2			3.00E+12	0.0	0.0

!Friedrich et al. Int. J Chem Kinet.34(2002)98****
HCO+HCO=CH2O+CO			2.70E+13	0.0	0.0

!Tsang and Hampson J Phys chem ref data 15(1986)1087-1279****
HCO+HCO=H2+CO+CO		3.00E+12	0.0	0.0

!Larson et al. Int. J Chem Kinet.20(1988)27-40****
HOCO(+M)=H+CO2(+M)		1.74E+12	0.307	32930
    LOW /2.29E+26 -3.02 35070/
    H2/1.5/ H2O/0.0/ O2/0.0/ AR/0/  
!Yu et al. J phys chem 109(2005) 5230-5236****    
HOCO+OH=H2O+CO2			1.60E+13	0.0	560

!Yu and Muckerman J phys chem 110(2006)5312-5316****
HOCO+O2=HO2+CO2			1.38E+10	0.842	160


! ------------------- kinetic of excited OH(A) ----------------------

! -------------------------------------------
! OH(A) kinetics
! from references [Smith2002], table no. 1
!                 [Petersen2003], table no. 1
! -------------------------------------------
!H+O+M<=>oh(A)+M                   3.630E+13    0.00         0.   ! [Smith2002]:11 = [Kaskan59]/[Davis74] analysed
!
!
!oh(A)+M<=>OH+M                    1.500E+12    0.50         0.   ! analoge to [Petersen2003]:06
! AR/0.0/  H2O/0.0/  H2/0.0/  N2/0.0/  O2/0.0/  
!
!oh(A)+N2<=>OH+N2                  1.080E+11    0.50     -1238.   ! [Smith2002]:22 = [Tamura1998]
!oh(A)+H2O<=>OH+H2O                5.920E+12    0.50      -861.   ! [Smith2002]:24 = [Tamura1998]
!oh(A)+H2<=>OH+H2                  2.950E+12    0.50      -444.   ! [Smith2002]:25 = [Tamura1998]
!oh(A)+O2<=>OH+O2                  2.100E+12    0.50      -482.   ! [Smith2002]:23 = [Tamura1998]
!oh(A)+AR<=>OH+AR                  5.200E+10    0.50         0.   ! [Petersen2003]:02 = [Hidaka1982]
!
!oh(A)=>OH+HV                      1.450E+06    0.00         0.   ! [Smith2002]:21 = [Dimpfl1979]
!HV/3086/



! ---------------------------------------------------------------------
! References for the OH(A)-kinetics:
!
! [Dimpfl1979]
! Dimpfl WL, Kinsey JL
! J.Quant.Spectrosc.Radiat.Transfer 21 (1979), 233-241
!
! [Tamura1998]
! Tamura M, Berg PA, Harrington JE, Luque J,
! Jeffries JB, Smith GP, Crosley DR
! Comb.Flame 114 (1998), 502-514
!
! [Smith2002]
! Smith GP, Luque J, Chung P, Jeffries JB, Crosley DR
! Low Pressure Flame Determinations of Rate Constants
! for OH(A) and CH(A) Chemiluminescence
! Combustion and Flame 131 (2002), 59-69
!
! ---------------------------------------------------------------------





END



