THERMO ALL
  300.000  1000.000  5000.000
O2                RUS-89O   2               G     200.0    6000.0  1000.0      1
   3.66096065E0  6.56365811E-4 -1.41149627E-7 2.05797935E-11-1.29913436E-15    2
  -1.21597718E3   3.41536279E0   3.78245636E0 -2.99673416E-3  9.84730201E-6    3
 -9.68129509E-9 3.24372837E-12  -1.06394356E3   3.65767573E0                   4
OH                IU3-03H   1O   1          G     200.0    6000.0  1000.0      1
   2.83853033E0  1.10741289E-3 -2.94000209E-7 4.20698729E-11 -2.4228989E-15    2
   3.69780808E3   5.84494652E0   3.99198424E0 -2.40106655E-3  4.61664033E-6    3
 -3.87916306E-9 1.36319502E-12   3.36889836E3 -1.03998477E-1                   4
H2O               L-5-89H   2O   1          G     200.0    6000.0  1000.0      1
    2.6770389E0   2.9731816E-3  -7.7376889E-7  9.4433514E-11 -4.2689991E-15    2
   -2.9885894E4      6.88255E0    4.1986352E0  -2.0364017E-3   6.5203416E-6    3
  -5.4879269E-9   1.771968E-12   -3.0293726E4  -8.4900901E-1                   4
N2                G-8-02N   2               G     200.0    6000.0  1000.0      1
   2.95257637E0   1.3969004E-3 -4.92631603E-7 7.86010195E-11-4.60755204E-15    2
  -9.23948688E2   5.87188762E0   3.53100528E0 -1.23660988E-4 -5.02999433E-7    3
  2.43530612E-9-1.40881235E-12  -1.04697628E3   2.96747038E0                   4
NO                      N   1O   1          G    200.00   3500.00 1000.00      1
 2.59354221E+00 2.64415882E-03-1.52114885E-06 4.10403638E-10-4.18254553E-14    2
 1.01483561E+04 9.96631515E+00 4.01174047E+00-3.02863423E-03 6.98804072E-06    3
-5.26238941E-09 1.37637281E-12 9.86471645E+03 3.12432834E+00                   4
N2O                     N   2O   1          G    200.00   3500.00 1000.00      1
 3.73479467E+00 4.92112867E-03-2.64141082E-06 6.75979379E-10-6.61701157E-14    2
 8.45788435E+03 3.70529413E+00 2.32814393E+00 1.05477316E-02-1.10813152E-05    3
 6.30258232E-09-1.47282085E-12 8.73921450E+03 1.04915708E+01                   4
NO2                     N   1O   2          G    200.00   3500.00 1000.00      1
 2.81928760E+00 6.66768363E-03-4.20601408E-06 1.21236128E-09-1.27472160E-13    2
 3.01997287E+03 1.10216156E+01 3.02085906E+00 5.86139777E-03-2.99658531E-06    3
 4.06075432E-10 7.40993029E-14 2.97965858E+03 1.00491498E+01                   4
HNO                     H   1N   1O   1     G    200.00   3500.00 1000.00      1
 2.58538362E+00 4.39768557E-03-1.51527792E-06 3.27344483E-10-3.48008773E-14    2
 1.19447198E+04 1.07066015E+01 3.95390792E+00-1.07641160E-03 6.69586784E-06    3
-5.14675269E-09 1.33372342E-12 1.16710149E+04 4.10426287E+00                   4
HNO2                    H   1N   1O   2     G    200.00   3500.00 1000.00      1
 1.67672720E+00 1.13742369E-02-6.65140747E-06 1.80801424E-09-1.85461497E-13    2
-6.22986791E+03 1.60907952E+01 2.50761895E+00 8.05066991E-03-1.66605697E-06    3
-1.51555276E-09 6.45430253E-13-6.39604626E+03 1.20822228E+01                   4
HONO                    H   1N   1O   2     G    200.00   3500.00 1000.00      1
 4.27918633E+00 6.88970202E-03-3.70392984E-06 9.54587536E-10-9.47191408E-14    2
-1.10731255E+04 4.10913869E+00 2.48864620E+00 1.40518625E-02-1.44471706E-05    3
 8.11674804E-09-1.88525927E-12-1.07150175E+04 1.27474598E+01                   4
HONO2                   H   1N   1O   3     G    200.00   3500.00 1000.00      1
 4.53382238E+00 1.19894623E-02-7.32618265E-06 2.02955283E-09-2.09762347E-13    2
-1.81055423E+04 2.64544358E+00 6.03055389E-01 2.77125303E-02-3.09107846E-05    3
 1.77526208E-08-4.14052934E-12-1.73193889E+04 2.16091221E+01                   4
N2H2                    N   2H   2          G    300.00   3500.00 1000.00      1
 1.97737018E+00 8.91844494E-03-4.40431229E-06 1.05190934E-09-9.80620109E-14    2
 2.42198218E+04 1.25741464E+01 2.48823124E+00 6.87500070E-03-1.33914593E-06    3
-9.91534900E-10 4.12799049E-13 2.41176496E+04 1.01095371E+01                   4
H2NN                    N   2H   2          G    200.00   3500.00 1000.00      1
 9.69068217E-01 1.07127806E-02-5.61487273E-06 1.41593821E-09-1.38510047E-13    2
 3.55686201E+04 1.79803472E+01 3.60942403E+00 1.51357329E-04 1.02272621E-05    3
-9.14548503E-09 2.50184576E-12 3.50405489E+04 5.24215669E+00                   4
NH2OH                   N   1H   3O   1     G    200.00   3500.00 1000.00      1
 3.62592572E+00 8.71790060E-03-3.25468337E-06 5.74069573E-10-4.06039679E-14    2
-6.77351878E+03 5.16631665E+00 2.29706787E+00 1.40333320E-02-1.12278305E-05    3
 5.88950100E-09-1.36946183E-12-6.50774721E+03 1.15772877E+01                   4
HNOH                    H   2N   1O   1     G    200.00   3500.00 1000.00      1
 2.58923565E+00 7.95626702E-03-3.97699932E-06 9.87009095E-10-9.64164196E-14    2
 1.10468780E+04 1.11269069E+01 2.67978764E+00 7.59405907E-03-3.43368741E-06    3
 6.24801150E-10-5.86443340E-15 1.10287676E+04 1.06900459E+01                   4
NH3                     H   3N   1          G    200.00   3500.00 1000.00      1
 2.17000818E+00 6.76363558E-03-2.64200998E-06 5.26178719E-10-4.21542607E-14    2
-6.35633825E+03 9.03526090E+00 3.58776922E+00 1.09259142E-03 5.86455626E-06    3
-5.14486544E-09 1.37560678E-12-6.63989046E+03 2.19538342E+00                   4
N2H4                    N   2H   4          G    200.00   3500.00 1000.00      1
 2.51016628E+00 1.40719894E-02-7.01651081E-06 1.72966000E-09-1.67845607E-13    2
 1.01045064E+04 1.03911368E+01 1.66158577E+00 1.74663115E-02-1.21079939E-05    3
 5.12398203E-09-1.01642612E-12 1.02742225E+04 1.44850472E+01                   4
N                       N   1               G    200.00   3500.00 1000.00      1
 2.49388718E+00 1.03463894E-05 1.86373408E-09-6.88831040E-12 2.02531947E-15    2
 5.61062734E+04 4.22664618E+00 2.50529382E+00-3.52801814E-05 7.03035902E-08    3
-5.25148812E-11 1.34319622E-14 5.61039921E+04 4.17161573E+00                   4
NO3                     N   1O   3          G    200.00   3500.00 1000.00      1
 4.63338302E+00 8.75778392E-03-5.64510346E-06 1.61870163E-09-1.71019250E-13    2
 7.10564604E+03 1.22164434E+00 2.83089005E-01 2.61589600E-02-3.17468676E-05    3
 1.90198777E-08-4.52131327E-12 7.97570484E+03 2.22092983E+01                   4
NH                      N   1H   1          G    200.00   3500.00 1000.00      1
 3.35042867E+00 7.69077379E-05 5.26498857E-07-2.20844533E-10 2.78392313E-14    2
 4.21570028E+04 2.69491259E+00 3.70661261E+00-1.34782800E-03 2.66360247E-06    3
-1.64558027E-09 3.84023166E-13 4.20857660E+04 9.76530994E-01                   4
NNH                     N   2H   1          G    200.00   3500.00 1000.00      1
 2.37841845E+00 5.49090820E-03-2.85625537E-06 7.13106252E-10-6.91355603E-14    2
 2.91296358E+04 1.20624183E+01 3.89754146E+00-5.85583840E-04 6.25848270E-06    3
-5.36338579E-09 1.44998745E-12 2.88258112E+04 4.73352793E+00                   4
NH2                     N   1H   2          G    200.00   3500.00 1000.00      1
 3.07029783E+00 2.43321667E-03-2.97441803E-07-9.59510694E-11 2.14387823E-14    2
 2.14120013E+04 5.33199326E+00 4.22292679E+00-2.17729917E-03 6.61833196E-06    3
-4.70646691E-09 1.17406774E-12 2.11814755E+04-2.28775188E-01                   4
H2NO                    N   1H   2O   1     G    200.00   3500.00 1000.00      1
 2.60469506E+00 7.67251442E-03-3.65359694E-06 8.66020061E-10-8.16618809E-14    2
 6.90925077E+03 1.05131689E+01 3.32193214E+00 4.80356610E-03 6.49825548E-07    3
-2.00292826E-09 6.35575200E-13 6.76580336E+03 7.05291457E+00                   4
N2H3                    N   2H   3          G    200.00   3500.00 1000.00      1
 2.44355092E+00 1.08055013E-02-5.10970944E-06 1.20836975E-09-1.13960343E-13    2
 2.58683149E+04 1.15160769E+01 2.13725406E+00 1.20306887E-02-6.94749058E-06    3
 2.43355717E-09-4.20257198E-13 2.59295743E+04 1.29937821E+01                   4
AR                G 5/97AR  1  0    0      0G   200.000  6000.00  1000.00      1
 2.50000000E+00 0.00000000E+00 0.00000000E+00 0.00000000E+00 0.00000000E+00    2
-7.45375000E+02 4.37967491E+00 2.50000000E+00 0.00000000E+00 0.00000000E+00    3
 0.00000000E+00 0.00000000E+00-7.45375000E+02 4.37967491E+00                   4
HE                G 5/97HE 1    0    0    0 G   200.000  6000.00  1000.00      1
 2.50000000E+00 0.00000000E+00 0.00000000E+00 0.00000000E+00 0.00000000E+00    2
-7.45375000E+02 9.28723974E-01 2.50000000E+00 0.00000000E+00 0.00000000E+00    3
 0.00000000E+00 0.00000000E+00-7.45375000E+02 9.28723974E-01                   4
H                 L-6-94H   1               G     200.0    6000.0  1000.0      1
          2.5E0          0.0E0          0.0E0          0.0E0          0.0E0    2
     2.547366E4  -4.4668285E-1          2.5E0          0.0E0          0.0E0    3
          0.0E0          0.0E0     2.547366E4  -4.4668285E-1                   4
H2                TPIS78H   2               G     200.0    6000.0  1000.0      1
   2.93286575E0  8.26608026E-4 -1.46402364E-7 1.54100414E-11  -6.888048E-16    2
  -8.13065581E2  -1.02432865E0   2.34433112E0  7.98052075E-3  -1.9478151E-5    3
  2.01572094E-8-7.37611761E-12  -9.17935173E2  6.83010238E-1                   4
O                 L-1-90O   1               G     200.0    6000.0  1000.0      1
   2.54363697E0 -2.73162486E-5  -4.1902952E-9 4.95481845E-12-4.79553694E-16    2
    2.9226012E4   4.92229457E0    3.1682671E0 -3.27931884E-3  6.64306396E-6    3
 -6.12806624E-9 2.11265971E-12   2.91222592E4   2.05193346E0                   4
HO2               T-1-09H   1O   2          G     200.0    5000.0  1000.0      1
   4.17228741E0  1.88117627E-3 -3.46277286E-7 1.94657549E-11 1.76256905E-16    2
   3.10206839E1   2.95767672E0   4.30179807E0 -4.74912097E-3  2.11582905E-5    3
 -2.42763914E-8 9.29225225E-12   2.64018485E2    3.7166622E0                   4
H2O2              T-8-03H   2O   2          G     200.0    6000.0  1000.0      1
   4.57977305E0  4.05326003E-3  -1.2984473E-6   1.982114E-10-1.13968792E-14    2
  -1.80071775E4  6.64970694E-1   4.31515149E0 -8.47390622E-4  1.76404323E-5    3
 -2.26762944E-8 9.08950158E-12  -1.77067437E4   3.27373319E0                   4
CO                RUS-79O   1C   1          G     200.0    6000.0  1000.0      1
    3.0484859E0   1.3517281E-3  -4.8579405E-7  7.8853644E-11 -4.6980746E-15    2
   -1.4266117E4    6.0170977E0    3.5795335E0  -6.1035369E-4   1.0168143E-6    3
  9.0700586E-10 -9.0442449E-13   -1.4344086E4    3.5084093E0                   4
CO2               L-7-88O   2C   1          G     200.0    6000.0  1000.0      1
    4.6365111E0   2.7414569E-3  -9.9589759E-7  1.6038666E-10 -9.1619857E-15    2
   -4.9024904E4   -1.9348955E0     2.356813E0   8.9841299E-3  -7.1220632E-6    3
   2.4573008E-9 -1.4288548E-13   -4.8371971E4    9.9009035E0                   4
CH2O              T-5-11H   2O   1C   1     G     200.0    6000.0  1000.0      1
   3.16952665E0   6.1932056E-3 -2.25056366E-6  3.6597566E-10-2.20149458E-14    2
  -1.45486831E4   6.04207898E0   4.79372312E0 -9.90833322E-3   3.7321999E-5    3
 -3.79285237E-8 1.31772641E-11  -1.43791953E4  6.02798058E-1                   4
HCO               T-5-03H   1O   1C   1     G     200.0    6000.0  1000.0      1
   3.92001542E0  2.52279324E-3 -6.71004164E-7 1.05615948E-10-7.43798261E-15    2
   3.65342928E3   3.58077056E0    4.2375461E0 -3.32075257E-3  1.40030264E-5    3
 -1.34239995E-8 4.37416208E-12   3.87241185E3   3.30834869E0                   4
CH3OH             T06-02H   4O   1C   1     G     200.0    6000.0  1000.0      1
   3.52726795E0  1.03178783E-2 -3.62892944E-6 5.77448016E-10-3.42182632E-14    2
  -2.60028834E4   5.16758693E0   5.65851051E0 -1.62983419E-2  6.91938156E-5    3
 -7.58372926E-8  2.8042755E-11  -2.56119736E4 -8.97330508E-1                   4
CH2OH             IU2-03H   3O   1C   1     G     200.0    6000.0  1000.0      1
    5.0931437E0   5.9476126E-3  -2.0649746E-6 3.23008173E-10-1.88125902E-14    2
   -4.0340964E3  -1.84691493E0   4.47834367E0  -1.3507031E-3   2.7848498E-5    3
  -3.6486906E-8  1.4790745E-11   -3.5007289E3     3.309135E0                   4
CH3O              IU1-03H   3O   1C   1     G     200.0    6000.0  1000.0      1
   4.75779238E0  7.44142474E-3 -2.69705176E-6 4.38090504E-10-2.63537098E-14    2
    3.7811194E2  -1.96680028E0   3.71180502E0 -2.80463306E-3  3.76550971E-5    3
 -4.73072089E-8  1.8658842E-11    1.2956976E3   6.57240864E0                   4
CH3O2                   H   3O   2C   1     G     300.0    5000.0  1374.0      1
   6.47970487E0   7.4440108E-3 -2.52348555E-6 3.89577296E-10-2.25182399E-14    2
  -1.56285441E3  -8.19477074E0   1.97339205E0   1.5354234E-2 -6.37314891E-6    3
 3.19930565E-10 2.82193915E-13   2.54278835E2   1.69194215E1                   4
CH4               G-8-99H   4C   1          G     200.0    6000.0  1000.0      1
   1.65326226E0  1.00263099E-2 -3.31661238E-6 5.36483138E-10-3.14696758E-14    2
  -1.00095936E4   9.90506283E0   5.14911468E0 -1.36622009E-2  4.91453921E-5    3
 -4.84246767E-8 1.66603441E-11  -1.02465983E4  -4.63848842E0                   4
CH3               IU0702H   3C   1          G     200.0    6000.0  1000.0      1
    2.9781206E0    5.797852E-3    -1.97558E-6   3.072979E-10 -1.7917416E-14    2
    1.6509513E4    4.7224799E0    3.6571797E0   2.1265979E-3   5.4583883E-6    3
  -6.6181003E-9  2.4657074E-12    1.6422716E4    1.6735354E0                   4
CH2               IU3-03H   2C   1          G     200.0    6000.0  1000.0      1
   3.14631886E0  3.03671259E-3 -9.96474439E-7  1.5048358E-10-8.57335515E-15    2
   4.60412605E4   4.72341711E0   3.71757846E0   1.2739126E-3  2.17347251E-6    3
   -3.488585E-9 1.65208866E-12   4.58723866E4   1.75297945E0                   4
CH2(S)            IU6-03H   2C   1          G     200.0    6000.0  1000.0      1
   3.13501686E0  2.89593926E-3  -8.1666809E-7 1.13572697E-10-6.36262835E-15    2
   5.05040504E4   4.06030621E0   4.19331325E0 -2.33105184E-3  8.15676451E-6    3
 -6.62985981E-9 1.93233199E-12   5.03662246E4  -7.4673431E-1                   4
C2H6              G-8-88H   6C   2          G     200.0    6000.0  1000.0      1
   4.04666411E0  1.53538802E-2 -5.47039485E-6 8.77826544E-10-5.23167531E-14    2
  -1.24473499E4 -9.68698313E-1   4.29142572E0 -5.50154901E-3  5.99438458E-5    3
 -7.08466469E-8 2.68685836E-11  -1.15222056E4   2.66678994E0                   4
C2H5O2                  H   5O   2C   2     G     300.0    5000.0  1389.0      1
    9.5028257E0  1.20429839E-2 -4.09491581E-6 6.33049241E-10-3.66133788E-14    2
  -7.37069391E3   -2.2171713E1   3.90351912E0  2.22599212E-2 -1.01610079E-5    3
  1.71709751E-9 1.88166738E-14  -5.09654081E3    8.9872275E0                   4
C2H5              -THERMH   5C   2          G     300.0    5000.0  1387.0      1
    5.8878439E0  1.03076793E-2 -3.46844396E-6 5.32499257E-10-3.06512651E-14    2
   1.15065499E4  -8.49651771E0   1.32730217E0  1.76656753E-2 -6.14926558E-6    3
-3.01143466E-10 4.38617775E-13   1.34284028E4   1.71789216E1                   4
C2H4              G-1-00H   4C   2          G     200.0    6000.0  1000.0      1
   3.99182724E0  1.04833908E-2 -3.71721342E-6 5.94628366E-10-3.53630386E-14    2
   4.26865851E3 -2.69081762E-1   3.95920063E0 -7.57051373E-3  5.70989993E-5    3
 -6.91588352E-8  2.6988419E-11   5.08977598E3   4.09730213E0                   4
C2H3              ATCT-AH   3C   2          G     200.0    6000.0  1000.0      1
   4.15026763E0  7.54021341E-3 -2.62997847E-6 4.15974048E-10-2.45407509E-14    2
    3.3856638E4   1.72812235E0   3.36377642E0  2.65765722E-4  2.79620704E-5    3
 -3.72986942E-8 1.51590176E-11   3.44749589E4   7.91510092E0                   4
C2H2              G-1-91H   2C   2          G     200.0    6000.0  1000.0      1
   4.65878489E0  4.88396667E-3 -1.60828888E-6 2.46974544E-10-1.38605959E-14    2
   2.57594042E4  -3.99838194E0  8.08679682E-1  2.33615762E-2 -3.55172234E-5    3
  2.80152958E-8-8.50075165E-12   2.64289808E4   1.39396761E1                   4
CH2CHO            T03-10H   3O   1C   2     G     200.0    6000.0  1000.0      1
   6.53928338E0  7.80238629E-3 -2.76413612E-6 4.42098906E-10 -2.6295429E-14    2
  -1.18858659E3  -8.72091393E0     2.795026E0  1.01099472E-2  1.61750645E-5    3
 -3.10303145E-8 1.39436139E-11   1.62944975E2   1.23646657E1                   4
CH2CO                   H   2O   1C   2     G     300.0    5000.0  1000.0      1
   5.35869367E0  6.95641586E-3 -2.64802637E-6 4.65067592E-10 -3.0864182E-14    2
  -7.90294013E3  -3.98525731E0   1.81422511E0   1.9900859E-2 -2.21416008E-5    3
  1.45028521E-8-3.98877068E-12  -7.05394926E3   1.36079359E1                   4
HCCO              T-4-09H   1O   1C   2     G     200.0    6000.0  1000.0      1
   5.91479333E0   3.7140873E-3  -1.3013701E-6 2.06473345E-10-1.21476759E-14    2
   1.93596301E4  -5.50567269E0   1.87607969E0  2.21205418E-2 -3.58869325E-5    3
  3.05402541E-8-1.01281069E-11    2.0163384E4    1.3696829E1                   4
NC3H7             A-5-05H   7C   3          G     200.0    6000.0  1000.0      1
   6.49636579E0  1.77337992E-2 -6.24898046E-6 9.95389495E-10 -5.9019977E-14    2
   8.85973885E3   -8.5638971E0   4.08211458E0  5.23240341E-3  5.13554466E-5    3
 -6.99343598E-8 2.81819493E-11   1.04074558E4   8.39534919E0                   4
C3H6              G-2-00H   6C   3          G     200.0    6000.0  1000.0      1
   6.03870234E0  1.62963931E-2   -5.821308E-6 9.35936829E-10-5.58603143E-14    2
  -7.41715057E2  -8.43825992E0   3.83464468E0  3.29078952E-3  5.05228001E-5    3
 -6.66251176E-8 2.63707473E-11   7.88717123E2   7.53408013E0                   4
C3H5-A            PD5-98H   5C   3          G     300.0    3000.0  1000.0      1
    6.5007877E0   1.4324731E-2  -5.6781632E-6   1.1080801E-9 -9.0363887E-14    2
    1.7482449E4    -1.124305E1    1.3631835E0   1.9813821E-2    1.249706E-5    3
  -3.3355555E-8  1.5846571E-11    1.9245629E4    1.7173214E1                   4
C3H5O              KPS12H   5O   1C   3     G     300.0    5000.0  1402.0      1
   1.02638186E1  1.17609932E-2 -3.89837957E-6 5.92650815E-10-3.38867417E-14    2
   7.25938472E3  -2.75108651E1  8.24068673E-1  3.46749909E-2 -2.51786795E-5    3
  9.56781953E-9-1.48085302E-12   1.04203725E4    2.2828307E1                   4
C3H4-A            L-8-89H   4C   3          G     200.0    6000.0  1000.0      1
    6.3168722E0   1.1133728E-2  -3.9629378E-6  6.3564238E-10  -3.787554E-14    2
    2.0117495E4   -1.0995766E1    2.6130445E0   1.2122575E-2    1.853988E-5    3
  -3.4525149E-8  1.5335079E-11    2.1541567E4    1.0226139E1                   4
NC3H7O2                 H   7O   2C   3     G     300.0    5000.0  1500.0      1
   1.36927178E1  1.46801304E-2 -4.79793976E-6 7.22768575E-10-4.10732852E-14    2
  -1.17561732E4  -4.32476343E1   3.13948561E0  3.66456006E-2 -2.03703424E-5    3
  4.70670546E-9-1.99573208E-13  -7.91997431E3   1.42198984E1                   4
C2H3CHO           -THERMH   4O   1C   3     G     300.0    5000.0  1393.0      1
   1.04184959E1  9.48963321E-3 -3.29310529E-6 5.16279203E-10-3.01587291E-14    2
  -1.49630281E4  -3.07235061E1  2.92355162E-1  3.54321417E-2 -2.94936324E-5    3
  1.28100124E-8-2.26144108E-12  -1.16521584E4    2.2887828E1                   4
C7H16                   C   7H  16    0    0G   300.000  5000.000 1395.000     1
 2.25012314E+01 3.46122447E-02-1.18043982E-05 1.82894500E-09-1.05955678E-13    2
-3.43062239E+04-9.33711818E+01-9.08407323E-01 8.52753530E-02-5.25668671E-05    3
 1.62954250E-08-2.01050130E-12-2.57434808E+04 3.38295611E+01                   4
C7H15                   C   7H  15    0    0G   300.000  5000.000 1396.000     1
 2.14174224E+01 3.28392073E-02-1.11628188E-05 1.72585155E-09-9.98390142E-14    2
-1.06455467E+04-8.35962465E+01 3.97035978E-01 7.41511374E-02-3.83235778E-05    3
 7.74076842E-09-1.21846705E-13-2.61270661E+03 3.19805516E+01                   4
C7H15O2                 C   7H  15O   2    0G   300.000  5000.000 1399.000     1
 2.72644843E+01 3.26945656E-02-1.11450170E-05 1.72632915E-09-9.99959530E-14    2
-3.03857809E+04-1.11491892E+02 1.20198260E+00 9.33836346E-02-6.50845852E-05    3
 2.35152589E-08-3.47595547E-12-2.13315851E+04 2.85195439E+01                   4
C7H14OOH                C   7H  15O   2    0G   300.000  5000.000 1405.000     1
 2.64783436E+01 3.24715176E-02-1.09678712E-05 1.68846547E-09-9.73849101E-14    2
-2.35623223E+04-1.04295327E+02 1.97904247E+00 8.76230614E-02-5.70967697E-05    3
 1.86207763E-08-2.37904286E-12-1.49267710E+04 2.78812322E+01                   4
C7H14                   C   7H  14    0    0G   300.000  5000.000 1389.000     1
 2.06209791E+01 3.15553139E-02-1.07554876E-05 1.66593057E-09-9.64967953E-14    2
-1.95694445E+04-8.23986766E+01-5.38953650E-02 7.44295393E-02-4.28542682E-05    3
 1.17521061E-08-1.16517055E-12-1.18188874E+04 3.06085980E+01                   4
C7H14OOHO2              C   7H  15O   4    0G   300.000  5000.000 1401.000     1
 3.15622698E+01 3.32979030E-02-1.13556840E-05 1.75955945E-09-1.01947462E-13    2
-4.33174833E+04-1.28497441E+02 2.10052868E+00 1.04869368E-01-7.84344393E-05    3
 3.05606489E-08-4.86428857E-12-3.33943428E+04 2.86976000E+01                   4
NC7KET                  C   7H  14O   3    0G   300.000  5000.000 1407.000     1
 2.78320035E+01 3.10208344E-02-1.04056155E-05 1.59462341E-09-9.16859524E-14    2
-6.06431441E+04-1.10882439E+02 3.08590825E+00 8.80932737E-02-5.96048275E-05    3
 2.03540139E-08-2.74781807E-12-5.20881665E+04 2.20900858E+01                   4
C7H14O                  C   7H  14O   1    0G  300.0000 5000.0000 1416.00      1
 2.35365148E+01 3.12183029E-02-1.04591524E-05 1.60125267E-09-9.19956880E-14    2
-3.59249997E+04-1.00134247E+02-9.20615444E+00 1.19797971E-01-1.04719447E-04    3
 4.83328985E-08-9.13809023E-12-2.58272408E+04 7.13686472E+01                   4
NC3H7CHO                C   4H   8O   1    0G   300.000  5000.000 1679.000     1
 1.19789345E+01 2.04894148E-02-7.24831619E-06 1.15561709E-09-6.84119824E-14    2
-3.09272130E+04-3.63929716E+01 1.24208539E+00 4.21277518E-02-2.13832135E-05    3
 4.22614614E-09-1.03710908E-13-2.71049353E+04 2.21567167E+01                   4
NC3H7CO                 C   4H   7O   1    0G   300.000  5000.000 1496.000     1
+1.34870098E+01+1.58626861E-02-5.41698905E-06+8.40508889E-10-4.87570090E-14    2
-1.30725285E+04-4.38634081E+01+2.63537828E+00+3.40368642E-02-1.24118988E-05    3
-1.17886666E-09+1.16488136E-12-8.65919992E+03+1.68407569E+01+0.00000000E+00    4
END