/*---------------------------------------------------------------------------*\
| =========                 |                                                 |
| \\      /  F ield         | OpenFOAM: The Open Source CFD Toolbox           |
|  \\    /   O peration     | Version:  1.0                                   |
|   \\  /    A nd           | Web:      http://www.openfoam.org               |
|    \\/     M anipulation  |                                                 |
\*---------------------------------------------------------------------------*/
FoamFile
{
version                         2.0;
format                          ascii;
class                           dictionary;
object                          speciesMu;
}
H		
{		
Mu1	-2.04E+01	;
Mu2	3.65E+00	;
Mu3	-3.98E-01	;
Mu4	1.76E-02	;
}		
H2		
{		
Mu1	-1.38E+01	;
Mu2	1.00E+00	;
Mu3	-5.02E-02	;
Mu4	2.33E-03	;
}		
O		
{		
Mu1	-1.51E+01	;
Mu2	1.93E+00	;
Mu3	-1.74E-01	;
Mu4	7.84E-03	;
}		
O2		
{		
Mu1	-1.72E+01	;
Mu2	2.68E+00	;
Mu3	-2.72E-01	;
Mu4	1.21E-02	;
}		
OH		
{		
Mu1	-1.51E+01	;
Mu2	1.93E+00	;
Mu3	-1.74E-01	;
Mu4	7.84E-03	;
}		
H2O		
{		
Mu1	-1.06E+01	;
Mu2	-1.38E+00	;
Mu3	4.21E-01	;
Mu4	-2.41E-02	;
}		
CO		
{		
Mu1	-1.66E+01	;
Mu2	2.40E+00	;
Mu3	-2.36E-01	;
Mu4	1.05E-02	;
}		
HCO		
{		
Mu1	-1.99E+01	;
Mu2	2.70E+00	;
Mu3	-1.67E-01	;
Mu4	3.21E-03	;
}		
CO2		
{		
Mu1	-2.40E+01	;
Mu2	5.13E+00	;
Mu3	-5.72E-01	;
Mu4	2.44E-02	;
}		
CH3		
{		
Mu1	-2.02E+01	;
Mu2	3.63E+00	;
Mu3	-3.95E-01	;
Mu4	1.75E-02	;
}		
CH4		
{		
Mu1	-2.00E+01	;
Mu2	3.57E+00	;
Mu3	-3.87E-01	;
Mu4	1.71E-02	;
}		
HO2		
{		
Mu1	-1.71E+01	;
Mu2	2.68E+00	;
Mu3	-2.72E-01	;
Mu4	1.21E-02	;
}		
H2O2		
{		
Mu1	-1.71E+01	;
Mu2	2.68E+00	;
Mu3	-2.72E-01	;
Mu4	1.21E-02	;
}		
CH2O		
{		
Mu1	-1.99E+01	;
Mu2	2.70E+00	;
Mu3	-1.67E-01	;
Mu4	3.21E-03	;
}		
CH3O		
{		
Mu1	-2.00E+01	;
Mu2	2.86E+00	;
Mu3	-2.02E-01	;
Mu4	5.36E-03	;
}		
C2H6		
{		
Mu1	-2.45E+01	;
Mu2	5.15E+00	;
Mu3	-5.73E-01	;
Mu4	2.44E-02	;
}		
C2H4		
{		
Mu1	-2.39E+01	;
Mu2	5.10E+00	;
Mu3	-5.70E-01	;
Mu4	2.44E-02	;
}		
C2H5		
{		
Mu1	-2.45E+01	;
Mu2	5.15E+00	;
Mu3	-5.73E-01	;
Mu4	2.44E-02	;
}		
C2H		
{		
Mu1	-2.48E+01	;
Mu2	5.29E+00	;
Mu3	-5.88E-01	;
Mu4	2.49E-02	;
}		
C2H2		
{		
Mu1	-2.47E+01	;
Mu2	5.29E+00	;
Mu3	-5.88E-01	;
Mu4	2.49E-02	;
}		
C2H3		
{		
Mu1	-2.47E+01	;
Mu2	5.29E+00	;
Mu3	-5.88E-01	;
Mu4	2.49E-02	;
}		
CH3OH		
{		
Mu1	-2.06E+01	;
Mu2	3.05E+00	;
Mu3	-2.18E-01	;
Mu4	5.67E-03	;
}		
CH2OH		
{		
Mu1	-2.00E+01	;
Mu2	2.86E+00	;
Mu3	-2.02E-01	;
Mu4	5.36E-03	;
}		
CH2CO		
{		
Mu1	-2.23E+01	;
Mu2	3.87E+00	;
Mu3	-3.42E-01	;
Mu4	1.17E-02	;
}		
HCCO		
{		
Mu1	-1.92E+01	;
Mu2	3.75E+00	;
Mu3	-4.10E-01	;
Mu4	1.81E-02	;
}		
CH3CO		
{		
Mu1	-2.23E+01	;
Mu2	3.87E+00	;
Mu3	-3.42E-01	;
Mu4	1.17E-02	;
}		
CH2CHO		
{		
Mu1	-2.23E+01	;
Mu2	3.87E+00	;
Mu3	-3.42E-01	;
Mu4	1.17E-02	;
}		
CH3CHO		
{		
Mu1	-2.23E+01	;
Mu2	3.87E+00	;
Mu3	-3.42E-01	;
Mu4	1.17E-02	;
}		
C3H4-A		
{		
Mu1	-2.50E+01	;
Mu2	5.19E+00	;
Mu3	-5.56E-01	;
Mu4	2.27E-02	;
}		
C3H4-P		
{		
Mu1	-2.50E+01	;
Mu2	5.19E+00	;
Mu3	-5.56E-01	;
Mu4	2.27E-02	;
}		
C3H6		
{		
Mu1	-2.50E+01	;
Mu2	5.27E+00	;
Mu3	-5.71E-01	;
Mu4	2.36E-02	;
}		
C4H6		
{		
Mu1	-2.46E+01	;
Mu2	4.94E+00	;
Mu3	-5.11E-01	;
Mu4	2.03E-02	;
}		
NC3H7		
{		
Mu1	-2.52E+01	;
Mu2	5.27E+00	;
Mu3	-5.74E-01	;
Mu4	2.38E-02	;
}		
C4H7		
{		
Mu1	-2.46E+01	;
Mu2	4.96E+00	;
Mu3	-5.14E-01	;
Mu4	2.04E-02	;
}		
C4H8-1		
{		
Mu1	-2.46E+01	;
Mu2	4.96E+00	;
Mu3	-5.14E-01	;
Mu4	2.04E-02	;
}		
PC4H9		
{		
Mu1	-2.49E+01	;
Mu2	4.98E+00	;
Mu3	-5.19E-01	;
Mu4	2.07E-02	;
}		
CH3COCH2		
{		
Mu1	-2.26E+01	;
Mu2	3.87E+00	;
Mu3	-3.43E-01	;
Mu4	1.18E-02	;
}		
C2H5CHO		
{		
Mu1	-1.87E+01	;
Mu2	2.21E+00	;
Mu3	-1.05E-01	;
Mu4	6.65E-04	;
}		
C5H9		
{		
Mu1	-2.40E+01	;
Mu2	4.48E+00	;
Mu3	-4.37E-01	;
Mu4	1.64E-02	;
}		
C5H10-1		
{		
Mu1	-2.42E+01	;
Mu2	4.60E+00	;
Mu3	-4.57E-01	;
Mu4	1.75E-02	;
}		
C5H11-1		
{		
Mu1	-2.24E+01	;
Mu2	3.79E+00	;
Mu3	-3.30E-01	;
Mu4	1.11E-02	;
}		
C2H5O		
{		
Mu1	-2.13E+01	;
Mu2	3.26E+00	;
Mu3	-2.50E-01	;
Mu4	7.24E-03	;
}		
CH3O2		
{		
Mu1	-2.04E+01	;
Mu2	3.05E+00	;
Mu3	-2.18E-01	;
Mu4	5.67E-03	;
}		
CH3O2H		
{		
Mu1	-2.04E+01	;
Mu2	3.05E+00	;
Mu3	-2.18E-01	;
Mu4	5.67E-03	;
}		
C2H3O1-2		
{		
Mu1	-2.23E+01	;
Mu2	3.87E+00	;
Mu3	-3.42E-01	;
Mu4	1.17E-02	;
}		
C2H3CO		
{		
Mu1	-2.20E+01	;
Mu2	3.75E+00	;
Mu3	-3.23E-01	;
Mu4	1.08E-02	;
}		
C2H3CHO		
{		
Mu1	-1.92E+01	;
Mu2	2.38E+00	;
Mu3	-1.30E-01	;
Mu4	1.86E-03	;
}		
C3H5O		
{		
Mu1	-2.34E+01	;
Mu2	4.27E+00	;
Mu3	-4.05E-01	;
Mu4	1.48E-02	;
}		
C4H7O		
{		
Mu1	-2.03E+01	;
Mu2	2.75E+00	;
Mu3	-1.73E-01	;
Mu4	3.51E-03	;
}		
C3H5-A		
{		
Mu1	-2.50E+01	;
Mu2	5.25E+00	;
Mu3	-5.66E-01	;
Mu4	2.33E-02	;
}		
C3H3		
{		
Mu1	-2.50E+01	;
Mu2	5.19E+00	;
Mu3	-5.56E-01	;
Mu4	2.27E-02	;
}		
C3H2		
{		
Mu1	-2.31E+01	;
Mu2	4.79E+00	;
Mu3	-5.36E-01	;
Mu4	2.32E-02	;
}		
CH2(S)		
{		
Mu1	-2.03E+01	;
Mu2	3.63E+00	;
Mu3	-3.95E-01	;
Mu4	1.75E-02	;
}		
NC3H7CHO		
{		
Mu1	-1.91E+01	;
Mu2	2.34E+00	;
Mu3	-1.23E-01	;
Mu4	1.48E-03	;
}		
NC3H7CO		
{		
Mu1	-1.91E+01	;
Mu2	2.34E+00	;
Mu3	-1.23E-01	;
Mu4	1.48E-03	;
}		
C2H5COCH2		
{		
Mu1	-1.86E+01	;
Mu2	2.07E+00	;
Mu3	-8.44E-02	;
Mu4	-3.48E-04	;
}		
CH3CHCO		
{		
Mu1	-2.20E+01	;
Mu2	3.75E+00	;
Mu3	-3.23E-01	;
Mu4	1.08E-02	;
}		
NC3H7COCH3		
{		
Mu1	-2.00E+01	;
Mu2	2.65E+00	;
Mu3	-1.65E-01	;
Mu4	3.33E-03	;
}		
NC3H7COCH2		
{		
Mu1	-2.05E+01	;
Mu2	2.89E+00	;
Mu3	-1.95E-01	;
Mu4	4.58E-03	;
}		
NC7H16		
{		
Mu1	-2.20E+01	;
Mu2	3.47E+00	;
Mu3	-2.81E-01	;
Mu4	8.74E-03	;
}		
C7H15-1		
{		
Mu1	-2.20E+01	;
Mu2	3.47E+00	;
Mu3	-2.81E-01	;
Mu4	8.74E-03	;
}		
C7H15		
{		
Mu1	-2.20E+01	;
Mu2	3.47E+00	;
Mu3	-2.81E-01	;
Mu4	8.74E-03	;
}		
C7H15O2		
{		
Mu1	-1.72E+01	;
Mu2	1.34E+00	;
Mu3	3.10E-02	;
Mu4	-6.23E-03	;
}		
C7H14OOH		
{		
Mu1	-1.72E+01	;
Mu2	1.34E+00	;
Mu3	3.10E-02	;
Mu4	-6.23E-03	;
}		
C7H14OOHO2		
{		
Mu1	-1.56E+01	;
Mu2	5.06E-01	;
Mu3	1.53E-01	;
Mu4	-1.20E-02	;
}		
C7H14O		
{		
Mu1	-1.97E+01	;
Mu2	2.44E+00	;
Mu3	-1.28E-01	;
Mu4	1.34E-03	;
}		
NC7KET		
{		
Mu1	-1.62E+01	;
Mu2	8.85E-01	;
Mu3	9.73E-02	;
Mu4	-9.35E-03	;
}		
N2		
{		
Mu1	-1.66E+01	;
Mu2	2.39E+00	;
Mu3	-2.34E-01	;
Mu4	1.05E-02	;
}		
